# generated using pymatgen
data_Li13La6Zr3TaO24
_symmetry_space_group_name_H-M   'P 1'
_cell_length_a   22.41117860
_cell_length_b   11.20558930
_cell_length_c   11.20558930
_cell_angle_alpha   109.47122063
_cell_angle_beta   109.47122063
_cell_angle_gamma   109.47122063
_symmetry_Int_Tables_number   1
_chemical_formula_structural   Li13La6Zr3TaO24
_chemical_formula_sum   'Li52 La24 Zr12 Ta4 O96'
_cell_volume   2166.26811686
_cell_formula_units_Z   4
loop_
 _symmetry_equiv_pos_site_id
 _symmetry_equiv_pos_as_xyz
  1  'x, y, z'
loop_
 _atom_type_symbol
 _atom_type_oxidation_number
  Li+  1.0
  La3+  3.0
  Zr4+  4.0
  Ta5+  5.0
  O2-  -2.0
loop_
 _atom_site_type_symbol
 _atom_site_label
 _atom_site_symmetry_multiplicity
 _atom_site_fract_x
 _atom_site_fract_y
 _atom_site_fract_z
 _atom_site_occupancy
  Li+  Li0  1  0.19700000  0.98100000  0.71500000  1.0
  Li+  Li0  1  0.69700000  0.98100000  0.71500000  1.0
  Li+  Li1  1  0.39250000  0.76600000  0.67900000  1.0
  Li+  Li1  1  0.89250000  0.76600000  0.67900000  1.0
  Li+  Li2  1  0.20650000  0.73400000  0.01900000  1.0
  Li+  Li2  1  0.70650000  0.73400000  0.01900000  1.0
  Li+  Li3  1  0.04350000  0.60600000  0.82100000  1.0
  Li+  Li3  1  0.54350000  0.60600000  0.82100000  1.0
  Li+  Li4  1  0.00950000  0.91300000  0.23400000  1.0
  Li+  Li4  1  0.50950000  0.91300000  0.23400000  1.0
  Li+  Li5  1  0.24050000  0.21500000  0.39400000  1.0
  Li+  Li5  1  0.74050000  0.21500000  0.39400000  1.0
  Li+  Li6  1  0.44700000  0.67900000  0.91300000  1.0
  Li+  Li6  1  0.94700000  0.67900000  0.91300000  1.0
  Li+  Li7  1  0.36700000  0.82100000  0.21500000  1.0
  Li+  Li7  1  0.86700000  0.82100000  0.21500000  1.0
  Li+  Li8  1  0.10750000  0.23400000  0.32100000  1.0
  Li+  Li8  1  0.60750000  0.23400000  0.32100000  1.0
  Li+  Li9  1  0.29350000  0.26600000  0.98100000  1.0
  Li+  Li9  1  0.79350000  0.26600000  0.98100000  1.0
  Li+  Li10  1  0.14250000  0.10600000  0.51900000  1.0
  Li+  Li10  1  0.64250000  0.10600000  0.51900000  1.0
  Li+  Li11  1  0.49050000  0.39400000  0.21500000  1.0
  Li+  Li11  1  0.99050000  0.39400000  0.21500000  1.0
  Li+  Li12  1  0.44700000  0.71500000  0.98100000  1.0
  Li+  Li12  1  0.94700000  0.71500000  0.98100000  1.0
  Li+  Li13  1  0.14250000  0.67900000  0.76600000  1.0
  Li+  Li13  1  0.64250000  0.67900000  0.76600000  1.0
  Li+  Li14  1  0.10750000  0.48100000  0.89400000  1.0
  Li+  Li14  1  0.60750000  0.48100000  0.89400000  1.0
  Li+  Li15  1  0.41050000  0.73400000  0.71500000  1.0
  Li+  Li15  1  0.91050000  0.73400000  0.71500000  1.0
  Li+  Li16  1  0.11700000  0.21500000  0.82100000  1.0
  Li+  Li16  1  0.61700000  0.21500000  0.82100000  1.0
  Li+  Li17  1  0.13300000  0.58700000  0.48100000  1.0
  Li+  Li17  1  0.63300000  0.58700000  0.48100000  1.0
  Li+  Li18  1  0.39250000  0.51900000  0.10600000  1.0
  Li+  Li18  1  0.89250000  0.51900000  0.10600000  1.0
  Li+  Li19  1  0.31250000  0.25000000  0.37500000  1.0
  Li+  Li19  1  0.81250000  0.25000000  0.37500000  1.0
  Li+  Li20  1  0.06250000  0.37500000  0.25000000  1.0
  Li+  Li20  1  0.56250000  0.37500000  0.25000000  1.0
  Li+  Li21  1  0.37500000  0.87500000  0.62500000  1.0
  Li+  Li21  1  0.87500000  0.87500000  0.62500000  1.0
  Li+  Li22  1  0.06250000  0.25000000  0.87500000  1.0
  Li+  Li22  1  0.56250000  0.25000000  0.87500000  1.0
  Li+  Li23  1  0.18750000  0.75000000  0.62500000  1.0
  Li+  Li23  1  0.68750000  0.75000000  0.62500000  1.0
  Li+  Li24  1  0.12500000  0.12500000  0.37500000  1.0
  Li+  Li24  1  0.62500000  0.12500000  0.37500000  1.0
  Li+  Li25  1  0.37500000  0.37500000  0.12500000  1.0
  Li+  Li25  1  0.87500000  0.37500000  0.12500000  1.0
  La3+  La1  1  0.37500000  0.62500000  0.37500000  1.0
  La3+  La1  1  0.87500000  0.62500000  0.37500000  1.0
  La3+  La1  1  0.12500000  0.87500000  0.12500000  1.0
  La3+  La1  1  0.62500000  0.87500000  0.12500000  1.0
  La3+  La1  1  0.06250000  0.75000000  0.37500000  1.0
  La3+  La1  1  0.56250000  0.75000000  0.37500000  1.0
  La3+  La1  1  0.18750000  0.25000000  0.12500000  1.0
  La3+  La1  1  0.68750000  0.25000000  0.12500000  1.0
  La3+  La1  1  0.18750000  0.62500000  0.25000000  1.0
  La3+  La1  1  0.68750000  0.62500000  0.25000000  1.0
  La3+  La1  1  0.06250000  0.87500000  0.75000000  1.0
  La3+  La1  1  0.56250000  0.87500000  0.75000000  1.0
  La3+  La1  1  0.12500000  0.37500000  0.62500000  1.0
  La3+  La1  1  0.62500000  0.37500000  0.62500000  1.0
  La3+  La1  1  0.37500000  0.12500000  0.87500000  1.0
  La3+  La1  1  0.87500000  0.12500000  0.87500000  1.0
  La3+  La1  1  0.43750000  0.25000000  0.62500000  1.0
  La3+  La1  1  0.93750000  0.25000000  0.62500000  1.0
  La3+  La1  1  0.31250000  0.75000000  0.87500000  1.0
  La3+  La1  1  0.81250000  0.75000000  0.87500000  1.0
  La3+  La1  1  0.31250000  0.37500000  0.75000000  1.0
  La3+  La1  1  0.81250000  0.37500000  0.75000000  1.0
  La3+  La1  1  0.43750000  0.12500000  0.25000000  1.0
  La3+  La1  1  0.93750000  0.12500000  0.25000000  1.0
  Zr4+  Zr38  1  0.00000000  0.00000000  0.50000000  1.0
  Zr4+  Zr38  1  0.50000000  0.00000000  0.50000000  1.0
  Zr4+  Zr39  1  0.25000000  0.50000000  0.50000000  1.0
  Zr4+  Zr39  1  0.75000000  0.50000000  0.50000000  1.0
  Zr4+  Zr40  1  0.00000000  0.50000000  0.00000000  1.0
  Zr4+  Zr40  1  0.50000000  0.50000000  0.00000000  1.0
  Zr4+  Zr41  1  0.25000000  0.00000000  0.50000000  1.0
  Zr4+  Zr41  1  0.75000000  0.00000000  0.50000000  1.0
  Zr4+  Zr42  1  0.25000000  0.50000000  0.00000000  1.0
  Zr4+  Zr42  1  0.75000000  0.50000000  0.00000000  1.0
  Zr4+  Zr43  1  0.00000000  0.00000000  0.00000000  1.0
  Zr4+  Zr43  1  0.50000000  0.00000000  0.00000000  1.0
  Ta5+  Ta44  1  0.25000000  0.00000000  0.00000000  1.0
  Ta5+  Ta44  1  0.75000000  0.00000000  0.00000000  1.0
  Ta5+  Ta45  1  0.00000000  0.50000000  0.50000000  1.0
  Ta5+  Ta45  1  0.50000000  0.50000000  0.50000000  1.0
  O2-  O1  1  0.45365000  0.52230000  0.32140000  1.0
  O2-  O1  1  0.95365000  0.52230000  0.32140000  1.0
  O2-  O1  1  0.29635000  0.41410000  0.11500000  1.0
  O2-  O1  1  0.79635000  0.41410000  0.11500000  1.0
  O2-  O1  1  0.14955000  0.97770000  0.38500000  1.0
  O2-  O1  1  0.64955000  0.97770000  0.38500000  1.0
  O2-  O1  1  0.10045000  0.08590000  0.17860000  1.0
  O2-  O1  1  0.60045000  0.08590000  0.17860000  1.0
  O2-  O1  1  0.19250000  0.79910000  0.47770000  1.0
  O2-  O1  1  0.69250000  0.79910000  0.47770000  1.0
  O2-  O1  1  0.08930000  0.70090000  0.58590000  1.0
  O2-  O1  1  0.58930000  0.70090000  0.58590000  1.0
  O2-  O1  1  0.16070000  0.40730000  0.02230000  1.0
  O2-  O1  1  0.66070000  0.40730000  0.02230000  1.0
  O2-  O1  1  0.05750000  0.09270000  0.91410000  1.0
  O2-  O1  1  0.55750000  0.09270000  0.91410000  1.0
  O2-  O1  1  0.29295000  0.67860000  0.20090000  1.0
  O2-  O1  1  0.79295000  0.67860000  0.20090000  1.0
  O2-  O1  1  0.23885000  0.88500000  0.29910000  1.0
  O2-  O1  1  0.73885000  0.88500000  0.29910000  1.0
  O2-  O1  1  0.45705000  0.61500000  0.59270000  1.0
  O2-  O1  1  0.95705000  0.61500000  0.59270000  1.0
  O2-  O1  1  0.01115000  0.82140000  0.90730000  1.0
  O2-  O1  1  0.51115000  0.82140000  0.90730000  1.0
  O2-  O1  1  0.04635000  0.47770000  0.67860000  1.0
  O2-  O1  1  0.54635000  0.47770000  0.67860000  1.0
  O2-  O1  1  0.20365000  0.58590000  0.88500000  1.0
  O2-  O1  1  0.70365000  0.58590000  0.88500000  1.0
  O2-  O1  1  0.35045000  0.02230000  0.61500000  1.0
  O2-  O1  1  0.85045000  0.02230000  0.61500000  1.0
  O2-  O1  1  0.39955000  0.91410000  0.82140000  1.0
  O2-  O1  1  0.89955000  0.91410000  0.82140000  1.0
  O2-  O1  1  0.30750000  0.20090000  0.52230000  1.0
  O2-  O1  1  0.80750000  0.20090000  0.52230000  1.0
  O2-  O1  1  0.41070000  0.29910000  0.41410000  1.0
  O2-  O1  1  0.91070000  0.29910000  0.41410000  1.0
  O2-  O1  1  0.33930000  0.59270000  0.97770000  1.0
  O2-  O1  1  0.83930000  0.59270000  0.97770000  1.0
  O2-  O1  1  0.44250000  0.90730000  0.08590000  1.0
  O2-  O1  1  0.94250000  0.90730000  0.08590000  1.0
  O2-  O1  1  0.20705000  0.32140000  0.79910000  1.0
  O2-  O1  1  0.70705000  0.32140000  0.79910000  1.0
  O2-  O1  1  0.26115000  0.11500000  0.70090000  1.0
  O2-  O1  1  0.76115000  0.11500000  0.70090000  1.0
  O2-  O1  1  0.04295000  0.38500000  0.40730000  1.0
  O2-  O1  1  0.54295000  0.38500000  0.40730000  1.0
  O2-  O1  1  0.48885000  0.17860000  0.09270000  1.0
  O2-  O1  1  0.98885000  0.17860000  0.09270000  1.0
  O2-  O1  1  0.04295000  0.20090000  0.67860000  1.0
  O2-  O1  1  0.54295000  0.20090000  0.67860000  1.0
  O2-  O1  1  0.48885000  0.29910000  0.88500000  1.0
  O2-  O1  1  0.98885000  0.29910000  0.88500000  1.0
  O2-  O1  1  0.20705000  0.59270000  0.61500000  1.0
  O2-  O1  1  0.70705000  0.59270000  0.61500000  1.0
  O2-  O1  1  0.26115000  0.90730000  0.82140000  1.0
  O2-  O1  1  0.76115000  0.90730000  0.82140000  1.0
  O2-  O1  1  0.20365000  0.32140000  0.52230000  1.0
  O2-  O1  1  0.70365000  0.32140000  0.52230000  1.0
  O2-  O1  1  0.04635000  0.11500000  0.41410000  1.0
  O2-  O1  1  0.54635000  0.11500000  0.41410000  1.0
  O2-  O1  1  0.39955000  0.38500000  0.97770000  1.0
  O2-  O1  1  0.89955000  0.38500000  0.97770000  1.0
  O2-  O1  1  0.35045000  0.17860000  0.08590000  1.0
  O2-  O1  1  0.85045000  0.17860000  0.08590000  1.0
  O2-  O1  1  0.44250000  0.47770000  0.79910000  1.0
  O2-  O1  1  0.94250000  0.47770000  0.79910000  1.0
  O2-  O1  1  0.33930000  0.58590000  0.70090000  1.0
  O2-  O1  1  0.83930000  0.58590000  0.70090000  1.0
  O2-  O1  1  0.41070000  0.02230000  0.40730000  1.0
  O2-  O1  1  0.91070000  0.02230000  0.40730000  1.0
  O2-  O1  1  0.30750000  0.91410000  0.09270000  1.0
  O2-  O1  1  0.80750000  0.91410000  0.09270000  1.0
  O2-  O1  1  0.45705000  0.79910000  0.32140000  1.0
  O2-  O1  1  0.95705000  0.79910000  0.32140000  1.0
  O2-  O1  1  0.01115000  0.70090000  0.11500000  1.0
  O2-  O1  1  0.51115000  0.70090000  0.11500000  1.0
  O2-  O1  1  0.29295000  0.40730000  0.38500000  1.0
  O2-  O1  1  0.79295000  0.40730000  0.38500000  1.0
  O2-  O1  1  0.23885000  0.09270000  0.17860000  1.0
  O2-  O1  1  0.73885000  0.09270000  0.17860000  1.0
  O2-  O1  1  0.29635000  0.67860000  0.47770000  1.0
  O2-  O1  1  0.79635000  0.67860000  0.47770000  1.0
  O2-  O1  1  0.45365000  0.88500000  0.58590000  1.0
  O2-  O1  1  0.95365000  0.88500000  0.58590000  1.0
  O2-  O1  1  0.10045000  0.61500000  0.02230000  1.0
  O2-  O1  1  0.60045000  0.61500000  0.02230000  1.0
  O2-  O1  1  0.14955000  0.82140000  0.91410000  1.0
  O2-  O1  1  0.64955000  0.82140000  0.91410000  1.0
  O2-  O1  1  0.05750000  0.52230000  0.20090000  1.0
  O2-  O1  1  0.55750000  0.52230000  0.20090000  1.0
  O2-  O1  1  0.16070000  0.41410000  0.29910000  1.0
  O2-  O1  1  0.66070000  0.41410000  0.29910000  1.0
  O2-  O1  1  0.08930000  0.97770000  0.59270000  1.0
  O2-  O1  1  0.58930000  0.97770000  0.59270000  1.0
  O2-  O1  1  0.19250000  0.08590000  0.90730000  1.0
  O2-  O1  1  0.69250000  0.08590000  0.90730000  1.0
