# generated using pymatgen
data_Li7La3Zr2O12
_symmetry_space_group_name_H-M   'P 1'
_cell_length_a   11.24005651
_cell_length_b   11.24005651
_cell_length_c   22.48011302
_cell_angle_alpha   108.49999064
_cell_angle_beta   68.56835270
_cell_angle_gamma   71.50000936
_symmetry_Int_Tables_number   1
_chemical_formula_structural   Li7La3Zr2O12
_chemical_formula_sum   'Li56 La24 Zr16 O96'
_cell_volume   2184.39227151
_cell_formula_units_Z   8
loop_
 _symmetry_equiv_pos_site_id
 _symmetry_equiv_pos_as_xyz
  1  'x, y, z'
loop_
 _atom_type_symbol
 _atom_type_oxidation_number
  Li+  1.0
  La3+  3.0
  Zr4+  4.0
  O2-  -2.0
loop_
 _atom_site_type_symbol
 _atom_site_label
 _atom_site_symmetry_multiplicity
 _atom_site_fract_x
 _atom_site_fract_y
 _atom_site_fract_z
 _atom_site_occupancy
  Li+  Li0  1  0.87500000  0.25000000  0.43750000  1.0
  Li+  Li1  1  0.87500000  0.25000000  0.93750000  1.0
  Li+  Li2  1  0.37500000  0.25000000  0.68750000  1.0
  Li+  Li3  1  0.37500000  0.25000000  0.18750000  1.0
  Li+  Li4  1  0.62500000  0.75000000  0.31250000  1.0
  Li+  Li5  1  0.62102697  0.75183184  0.81188586  1.0
  Li+  Li6  1  0.12500000  0.75000000  0.56250000  1.0
  Li+  Li7  1  0.12941440  0.74988346  0.06100932  1.0
  Li+  Li8  1  0.30630000  0.25000000  0.40315000  1.0
  Li+  Li9  1  0.30310326  0.25155397  0.90751302  1.0
  Li+  Li10  1  0.44370000  0.61260000  0.65315000  1.0
  Li+  Li11  1  0.44370000  0.61260000  0.15315000  1.0
  Li+  Li12  1  0.05630000  0.75000000  0.27815000  1.0
  Li+  Li13  1  0.05630000  0.75000000  0.77815000  1.0
  Li+  Li14  1  0.19348818  0.10947933  0.52522468  1.0
  Li+  Li15  1  0.19370000  0.11260000  0.02815000  1.0
  Li+  Li16  1  0.69547826  0.74755534  0.59350665  1.0
  Li+  Li17  1  0.69370000  0.75000000  0.09685000  1.0
  Li+  Li18  1  0.55630000  0.38740000  0.34685000  1.0
  Li+  Li19  1  0.56172893  0.38434812  0.84455356  1.0
  Li+  Li20  1  0.94370000  0.25000000  0.72185000  1.0
  Li+  Li21  1  0.94370000  0.25000000  0.22185000  1.0
  Li+  Li22  1  0.80630000  0.88740000  0.47185000  1.0
  Li+  Li23  1  0.80713047  0.88962132  0.97487770  1.0
  Li+  Li24  1  0.27640000  0.49330000  0.69475000  1.0
  Li+  Li25  1  0.27472059  0.49141049  0.19682224  1.0
  Li+  Li26  1  0.10380000  0.16590000  0.44475000  1.0
  Li+  Li27  1  0.10162591  0.16918722  0.94501710  1.0
  Li+  Li28  1  0.26970000  0.50670000  0.44810000  1.0
  Li+  Li29  1  0.26861622  0.50452223  0.95152133  1.0
  Li+  Li30  1  0.60804462  0.66131289  0.69905613  1.0
  Li+  Li31  1  0.61050000  0.66590000  0.19810000  1.0
  Li+  Li32  1  0.72360000  0.50670000  0.30525000  1.0
  Li+  Li33  1  0.72360000  0.50670000  0.80525000  1.0
  Li+  Li34  1  0.89334984  0.83892724  0.55374203  1.0
  Li+  Li35  1  0.89620000  0.83410000  0.05525000  1.0
  Li+  Li36  1  0.73030000  0.49330000  0.55190000  1.0
  Li+  Li37  1  0.73030000  0.49330000  0.05190000  1.0
  Li+  Li38  1  0.38950000  0.33410000  0.30190000  1.0
  Li+  Li39  1  0.38950000  0.33410000  0.80190000  1.0
  Li+  Li40  1  0.77640000  0.33410000  0.36515000  1.0
  Li+  Li41  1  0.77474739  0.33228919  0.86493854  1.0
  Li+  Li42  1  0.60380000  0.00670000  0.61515000  1.0
  Li+  Li43  1  0.60043131  0.00841253  0.11101067  1.0
  Li+  Li44  1  0.76970000  0.83410000  0.36180000  1.0
  Li+  Li45  1  0.77042484  0.83354405  0.86219129  1.0
  Li+  Li46  1  0.11050000  0.99330000  0.61180000  1.0
  Li+  Li47  1  0.11050000  0.99330000  0.11180000  1.0
  Li+  Li48  1  0.22360000  0.66590000  0.63485000  1.0
  Li+  Li49  1  0.22360000  0.66590000  0.13485000  1.0
  Li+  Li50  1  0.39620000  0.99330000  0.38485000  1.0
  Li+  Li51  1  0.39620000  0.99330000  0.88485000  1.0
  Li+  Li52  1  0.23030000  0.16590000  0.63820000  1.0
  Li+  Li53  1  0.23030000  0.16590000  0.13820000  1.0
  Li+  Li54  1  0.89160992  0.00778291  0.38973625  1.0
  Li+  Li55  1  0.88950000  0.00670000  0.88820000  1.0
  La3+  La56  1  0.12354503  0.24571989  0.31164020  1.0
  La3+  La57  1  0.12500000  0.25000000  0.81250000  1.0
  La3+  La58  1  0.62699742  0.24998801  0.56258312  1.0
  La3+  La59  1  0.62535512  0.25384630  0.06300208  1.0
  La3+  La60  1  0.87488611  0.74978690  0.68337474  1.0
  La3+  La61  1  0.87500000  0.75000000  0.18750000  1.0
  La3+  La62  1  0.37500000  0.75000000  0.43750000  1.0
  La3+  La63  1  0.37500000  0.75000000  0.93750000  1.0
  La3+  La64  1  0.74612715  0.62454262  0.43764398  1.0
  La3+  La65  1  0.75000000  0.62716000  0.93858000  1.0
  La3+  La66  1  0.75000000  0.12716000  0.68858000  1.0
  La3+  La67  1  0.75000000  0.12716000  0.18858000  1.0
  La3+  La68  1  0.87716000  0.37284000  0.62500000  1.0
  La3+  La69  1  0.87716000  0.37284000  0.12500000  1.0
  La3+  La70  1  0.12284000  0.62716000  0.37500000  1.0
  La3+  La71  1  0.12284000  0.62716000  0.87500000  1.0
  La3+  La72  1  0.25000000  0.37284000  0.56142000  1.0
  La3+  La73  1  0.25000000  0.37284000  0.06142000  1.0
  La3+  La74  1  0.25000000  0.87284000  0.31142000  1.0
  La3+  La75  1  0.25217708  0.87802388  0.81280177  1.0
  La3+  La76  1  0.37716000  0.87284000  0.62500000  1.0
  La3+  La77  1  0.37716000  0.87284000  0.12500000  1.0
  La3+  La78  1  0.62284000  0.12716000  0.37500000  1.0
  La3+  La79  1  0.62284000  0.12716000  0.87500000  1.0
  Zr4+  Zr80  1  0.00000000  0.50000000  0.75000000  1.0
  Zr4+  Zr81  1  0.00000000  0.50000000  0.25000000  1.0
  Zr4+  Zr82  1  0.99502562  0.99817103  0.50205181  1.0
  Zr4+  Zr83  1  0.00000000  0.00000000  0.00000000  1.0
  Zr4+  Zr84  1  0.00000000  0.50000000  0.50000000  1.0
  Zr4+  Zr85  1  0.00000000  0.50000000  0.00000000  1.0
  Zr4+  Zr86  1  0.50000000  0.50000000  0.75000000  1.0
  Zr4+  Zr87  1  0.50000000  0.50000000  0.25000000  1.0
  Zr4+  Zr88  1  0.50000000  0.50000000  0.50000000  1.0
  Zr4+  Zr89  1  0.50000000  0.50000000  0.00000000  1.0
  Zr4+  Zr90  1  0.50000000  0.00000000  0.75000000  1.0
  Zr4+  Zr91  1  0.50000000  0.00000000  0.25000000  1.0
  Zr4+  Zr92  1  0.50000000  0.00000000  0.50000000  1.0
  Zr4+  Zr93  1  0.50000000  0.00000000  0.00000000  1.0
  Zr4+  Zr94  1  0.00301023  0.99856888  0.74336193  1.0
  Zr4+  Zr95  1  0.00000000  0.00000000  0.25000000  1.0
  O2-  O96  1  0.90180000  0.41190000  0.30965000  1.0
  O2-  O97  1  0.90282588  0.41383148  0.80396586  1.0
  O2-  O98  1  0.79412444  0.01997456  0.56034744  1.0
  O2-  O99  1  0.79260000  0.02110000  0.05965000  1.0
  O2-  O100  1  0.81370000  0.58810000  0.60370000  1.0
  O2-  O101  1  0.81370000  0.58810000  0.10370000  1.0
  O2-  O102  1  0.38264489  0.52544825  0.35223420  1.0
  O2-  O103  1  0.38070000  0.52110000  0.85370000  1.0
  O2-  O104  1  0.09820000  0.58810000  0.69035000  1.0
  O2-  O105  1  0.09820000  0.58810000  0.19035000  1.0
  O2-  O106  1  0.20740000  0.97890000  0.44035000  1.0
  O2-  O107  1  0.20422933  0.97902881  0.94590715  1.0
  O2-  O108  1  0.18630000  0.41190000  0.39630000  1.0
  O2-  O109  1  0.18630000  0.41190000  0.89630000  1.0
  O2-  O110  1  0.61278443  0.47867068  0.64573809  1.0
  O2-  O111  1  0.61930000  0.47890000  0.14630000  1.0
  O2-  O112  1  0.40180000  0.47890000  0.59315000  1.0
  O2-  O113  1  0.40542493  0.47533058  0.09156709  1.0
  O2-  O114  1  0.29260000  0.08810000  0.34315000  1.0
  O2-  O115  1  0.29260000  0.08810000  0.84315000  1.0
  O2-  O116  1  0.31370000  0.97890000  0.54910000  1.0
  O2-  O117  1  0.31370000  0.97890000  0.04910000  1.0
  O2-  O118  1  0.88070000  0.91190000  0.29910000  1.0
  O2-  O119  1  0.88070000  0.91190000  0.79910000  1.0
  O2-  O120  1  0.59820000  0.52110000  0.40685000  1.0
  O2-  O121  1  0.60051944  0.51832476  0.90788129  1.0
  O2-  O122  1  0.70740000  0.91190000  0.65685000  1.0
  O2-  O123  1  0.70740000  0.91190000  0.15685000  1.0
  O2-  O124  1  0.68630000  0.02110000  0.45090000  1.0
  O2-  O125  1  0.68630000  0.02110000  0.95090000  1.0
  O2-  O126  1  0.11930000  0.08810000  0.70090000  1.0
  O2-  O127  1  0.12063909  0.08394923  0.20364788  1.0
  O2-  O128  1  0.31633050  0.70377173  0.54760573  1.0
  O2-  O129  1  0.31590000  0.70090000  0.04500000  1.0
  O2-  O130  1  0.61090000  0.90590000  0.29500000  1.0
  O2-  O131  1  0.61090000  0.90590000  0.79500000  1.0
  O2-  O132  1  0.51680000  0.29910000  0.69455000  1.0
  O2-  O133  1  0.51680000  0.29910000  0.19455000  1.0
  O2-  O134  1  0.91088008  0.40515371  0.44443181  1.0
  O2-  O135  1  0.90658966  0.40380126  0.94674456  1.0
  O2-  O136  1  0.68410000  0.29910000  0.45500000  1.0
  O2-  O137  1  0.68410000  0.29910000  0.95500000  1.0
  O2-  O138  1  0.38910000  0.09410000  0.70500000  1.0
  O2-  O139  1  0.38910000  0.09410000  0.20500000  1.0
  O2-  O140  1  0.48320000  0.70090000  0.30545000  1.0
  O2-  O141  1  0.48552266  0.70259856  0.80650285  1.0
  O2-  O142  1  0.08792964  0.59458536  0.55690905  1.0
  O2-  O143  1  0.09396945  0.58977262  0.05294998  1.0
  O2-  O144  1  0.81590000  0.59410000  0.74160000  1.0
  O2-  O145  1  0.81590000  0.59410000  0.24160000  1.0
  O2-  O146  1  0.11090000  0.79910000  0.49160000  1.0
  O2-  O147  1  0.11090000  0.79910000  0.99160000  1.0
  O2-  O148  1  0.01680000  0.09410000  0.34205000  1.0
  O2-  O149  1  0.01680000  0.09410000  0.84205000  1.0
  O2-  O150  1  0.41000000  0.20090000  0.59205000  1.0
  O2-  O151  1  0.40636463  0.19782119  0.09616400  1.0
  O2-  O152  1  0.18410000  0.40590000  0.25840000  1.0
  O2-  O153  1  0.18410000  0.40590000  0.75840000  1.0
  O2-  O154  1  0.88910000  0.20090000  0.50840000  1.0
  O2-  O155  1  0.88910000  0.20090000  0.00840000  1.0
  O2-  O156  1  0.98320000  0.90590000  0.65795000  1.0
  O2-  O157  1  0.98320000  0.90590000  0.15795000  1.0
  O2-  O158  1  0.59061203  0.79897514  0.40932753  1.0
  O2-  O159  1  0.59000000  0.79910000  0.90795000  1.0
  O2-  O160  1  0.58190000  0.62260000  0.54765000  1.0
  O2-  O161  1  0.58190000  0.62260000  0.04765000  1.0
  O2-  O162  1  0.53273894  0.17172072  0.29766712  1.0
  O2-  O163  1  0.52730000  0.17720000  0.79765000  1.0
  O2-  O164  1  0.70966245  0.38209948  0.73394545  1.0
  O2-  O165  1  0.70450000  0.37740000  0.23635000  1.0
  O2-  O166  1  0.90470000  0.67720000  0.48635000  1.0
  O2-  O167  1  0.90470000  0.67720000  0.98635000  1.0
  O2-  O168  1  0.41810000  0.37740000  0.45235000  1.0
  O2-  O169  1  0.41810000  0.37740000  0.95235000  1.0
  O2-  O170  1  0.46759221  0.82335635  0.70152065  1.0
  O2-  O171  1  0.47270000  0.82280000  0.20235000  1.0
  O2-  O172  1  0.29550000  0.62260000  0.26365000  1.0
  O2-  O173  1  0.29550000  0.62260000  0.76365000  1.0
  O2-  O174  1  0.09530000  0.32280000  0.51365000  1.0
  O2-  O175  1  0.09546660  0.32099741  0.01985303  1.0
  O2-  O176  1  0.08190000  0.32280000  0.64775000  1.0
  O2-  O177  1  0.08190000  0.32280000  0.14775000  1.0
  O2-  O178  1  0.02730000  0.87740000  0.39775000  1.0
  O2-  O179  1  0.02910714  0.88096473  0.89749893  1.0
  O2-  O180  1  0.20450000  0.82280000  0.70905000  1.0
  O2-  O181  1  0.20276501  0.82370258  0.21186678  1.0
  O2-  O182  1  0.40470000  0.12260000  0.45905000  1.0
  O2-  O183  1  0.40470000  0.12260000  0.95905000  1.0
  O2-  O184  1  0.92093810  0.67649357  0.35339119  1.0
  O2-  O185  1  0.91810000  0.67720000  0.85225000  1.0
  O2-  O186  1  0.97270000  0.12260000  0.60225000  1.0
  O2-  O187  1  0.97406111  0.11860451  0.10217112  1.0
  O2-  O188  1  0.79550000  0.17720000  0.29095000  1.0
  O2-  O189  1  0.79550000  0.17720000  0.79095000  1.0
  O2-  O190  1  0.59530000  0.87740000  0.54095000  1.0
  O2-  O191  1  0.59530000  0.87740000  0.04095000  1.0
