# generated using pymatgen
data_Li7La3Zr2O12
_symmetry_space_group_name_H-M   'P 1'
_cell_length_a   22.66307617
_cell_length_b   11.33153808
_cell_length_c   11.33153808
_cell_angle_alpha   71.50000936
_cell_angle_beta   71.50000936
_cell_angle_gamma   111.43164730
_symmetry_Int_Tables_number   1
_chemical_formula_structural   Li7La3Zr2O12
_chemical_formula_sum   'Li56 La24 Zr16 O96'
_cell_volume   2238.16311986
_cell_formula_units_Z   8
loop_
 _symmetry_equiv_pos_site_id
 _symmetry_equiv_pos_as_xyz
  1  'x, y, z'
loop_
 _atom_type_symbol
 _atom_type_oxidation_number
  Li+  1.0
  La3+  3.0
  Zr4+  4.0
  O2-  -2.0
loop_
 _atom_site_type_symbol
 _atom_site_label
 _atom_site_symmetry_multiplicity
 _atom_site_fract_x
 _atom_site_fract_y
 _atom_site_fract_z
 _atom_site_occupancy
  Li+  Li0  1  0.68750000  0.79166667  0.75000000  1.0
  Li+  Li1  1  0.18750000  0.79166667  0.75000000  1.0
  Li+  Li2  1  0.93750000  0.29166667  0.75000000  1.0
  Li+  Li3  1  0.43750000  0.29166667  0.75000000  1.0
  Li+  Li4  1  0.56250000  0.04166667  0.25000000  1.0
  Li+  Li5  1  0.06250000  0.04166667  0.25000000  1.0
  Li+  Li6  1  0.81250000  0.54166667  0.25000000  1.0
  Li+  Li7  1  0.31250000  0.54166667  0.25000000  1.0
  Li+  Li8  1  0.65315000  0.36036667  0.75000000  1.0
  Li+  Li9  1  0.15315000  0.36036667  0.75000000  1.0
  Li+  Li10  1  0.90315000  0.22296667  0.38740000  1.0
  Li+  Li11  1  0.40315000  0.22296667  0.38740000  1.0
  Li+  Li12  1  0.52815000  0.61036667  0.25000000  1.0
  Li+  Li13  1  0.02815000  0.61036667  0.25000000  1.0
  Li+  Li14  1  0.77815000  0.47296667  0.88740000  1.0
  Li+  Li15  1  0.27815000  0.47296667  0.88740000  1.0
  Li+  Li16  1  0.84685000  0.97296667  0.25000000  1.0
  Li+  Li17  1  0.34685000  0.97296667  0.25000000  1.0
  Li+  Li18  1  0.59685000  0.11036667  0.61260000  1.0
  Li+  Li19  1  0.09685000  0.11036667  0.61260000  1.0
  Li+  Li20  1  0.97185000  0.72296667  0.75000000  1.0
  Li+  Li21  1  0.47185000  0.72296667  0.75000000  1.0
  Li+  Li22  1  0.72185000  0.86036667  0.11260000  1.0
  Li+  Li23  1  0.22185000  0.86036667  0.11260000  1.0
  Li+  Li24  1  0.94475000  0.39026667  0.50670000  1.0
  Li+  Li25  1  0.44475000  0.39026667  0.50670000  1.0
  Li+  Li26  1  0.69475000  0.56286667  0.83410000  1.0
  Li+  Li27  1  0.19475000  0.56286667  0.83410000  1.0
  Li+  Li28  1  0.69810000  0.39696667  0.49330000  1.0
  Li+  Li29  1  0.19810000  0.39696667  0.49330000  1.0
  Li+  Li30  1  0.94810000  0.05616667  0.33410000  1.0
  Li+  Li31  1  0.44810000  0.05616667  0.33410000  1.0
  Li+  Li32  1  0.55525000  0.94306667  0.49330000  1.0
  Li+  Li33  1  0.05525000  0.94306667  0.49330000  1.0
  Li+  Li34  1  0.80525000  0.77046667  0.16590000  1.0
  Li+  Li35  1  0.30525000  0.77046667  0.16590000  1.0
  Li+  Li36  1  0.80190000  0.93636667  0.50670000  1.0
  Li+  Li37  1  0.30190000  0.93636667  0.50670000  1.0
  Li+  Li38  1  0.55190000  0.27716667  0.66590000  1.0
  Li+  Li39  1  0.05190000  0.27716667  0.66590000  1.0
  Li+  Li40  1  0.61515000  0.89026667  0.66590000  1.0
  Li+  Li41  1  0.11515000  0.89026667  0.66590000  1.0
  Li+  Li42  1  0.86515000  0.06286667  0.99330000  1.0
  Li+  Li43  1  0.36515000  0.06286667  0.99330000  1.0
  Li+  Li44  1  0.61180000  0.89696667  0.16590000  1.0
  Li+  Li45  1  0.11180000  0.89696667  0.16590000  1.0
  Li+  Li46  1  0.86180000  0.55616667  0.00670000  1.0
  Li+  Li47  1  0.36180000  0.55616667  0.00670000  1.0
  Li+  Li48  1  0.88485000  0.44306667  0.33410000  1.0
  Li+  Li49  1  0.38485000  0.44306667  0.33410000  1.0
  Li+  Li50  1  0.63485000  0.27046667  0.00670000  1.0
  Li+  Li51  1  0.13485000  0.27046667  0.00670000  1.0
  Li+  Li52  1  0.88820000  0.43636667  0.83410000  1.0
  Li+  Li53  1  0.38820000  0.43636667  0.83410000  1.0
  Li+  Li54  1  0.63820000  0.77716667  0.99330000  1.0
  Li+  Li55  1  0.13820000  0.77716667  0.99330000  1.0
  La3+  La56  1  0.56250000  0.54166667  0.75000000  1.0
  La3+  La57  1  0.06250000  0.54166667  0.75000000  1.0
  La3+  La58  1  0.81250000  0.04166667  0.75000000  1.0
  La3+  La59  1  0.31250000  0.04166667  0.75000000  1.0
  La3+  La60  1  0.93750000  0.79166667  0.25000000  1.0
  La3+  La61  1  0.43750000  0.79166667  0.25000000  1.0
  La3+  La62  1  0.68750000  0.29166667  0.25000000  1.0
  La3+  La63  1  0.18750000  0.29166667  0.25000000  1.0
  La3+  La64  1  0.68858000  0.91666667  0.37284000  1.0
  La3+  La65  1  0.18858000  0.91666667  0.37284000  1.0
  La3+  La66  1  0.93858000  0.91666667  0.87284000  1.0
  La3+  La67  1  0.43858000  0.91666667  0.87284000  1.0
  La3+  La68  1  0.87500000  0.78950667  0.62716000  1.0
  La3+  La69  1  0.37500000  0.78950667  0.62716000  1.0
  La3+  La70  1  0.62500000  0.54382667  0.37284000  1.0
  La3+  La71  1  0.12500000  0.54382667  0.37284000  1.0
  La3+  La72  1  0.81142000  0.41666667  0.62716000  1.0
  La3+  La73  1  0.31142000  0.41666667  0.62716000  1.0
  La3+  La74  1  0.56142000  0.41666667  0.12716000  1.0
  La3+  La75  1  0.06142000  0.41666667  0.12716000  1.0
  La3+  La76  1  0.87500000  0.28950667  0.12716000  1.0
  La3+  La77  1  0.37500000  0.28950667  0.12716000  1.0
  La3+  La78  1  0.62500000  0.04382667  0.87284000  1.0
  La3+  La79  1  0.12500000  0.04382667  0.87284000  1.0
  Zr4+  Zr80  1  0.00000000  0.66666667  0.50000000  1.0
  Zr4+  Zr81  1  0.50000000  0.66666667  0.50000000  1.0
  Zr4+  Zr82  1  0.75000000  0.66666667  0.00000000  1.0
  Zr4+  Zr83  1  0.25000000  0.66666667  0.00000000  1.0
  Zr4+  Zr84  1  0.75000000  0.66666667  0.50000000  1.0
  Zr4+  Zr85  1  0.25000000  0.66666667  0.50000000  1.0
  Zr4+  Zr86  1  0.00000000  0.16666667  0.50000000  1.0
  Zr4+  Zr87  1  0.50000000  0.16666667  0.50000000  1.0
  Zr4+  Zr88  1  0.75000000  0.16666667  0.50000000  1.0
  Zr4+  Zr89  1  0.25000000  0.16666667  0.50000000  1.0
  Zr4+  Zr90  1  0.00000000  0.16666667  0.00000000  1.0
  Zr4+  Zr91  1  0.50000000  0.16666667  0.00000000  1.0
  Zr4+  Zr92  1  0.75000000  0.16666667  0.00000000  1.0
  Zr4+  Zr93  1  0.25000000  0.16666667  0.00000000  1.0
  Zr4+  Zr94  1  0.00000000  0.66666667  0.00000000  1.0
  Zr4+  Zr95  1  0.50000000  0.66666667  0.00000000  1.0
  O2-  O96  1  0.55965000  0.76486667  0.58810000  1.0
  O2-  O97  1  0.05965000  0.76486667  0.58810000  1.0
  O2-  O98  1  0.80965000  0.87406667  0.97890000  1.0
  O2-  O99  1  0.30965000  0.87406667  0.97890000  1.0
  O2-  O100  1  0.85370000  0.85296667  0.41190000  1.0
  O2-  O101  1  0.35370000  0.85296667  0.41190000  1.0
  O2-  O102  1  0.60370000  0.28596667  0.47890000  1.0
  O2-  O103  1  0.10370000  0.28596667  0.47890000  1.0
  O2-  O104  1  0.94035000  0.56846667  0.41190000  1.0
  O2-  O105  1  0.44035000  0.56846667  0.41190000  1.0
  O2-  O106  1  0.69035000  0.45926667  0.02110000  1.0
  O2-  O107  1  0.19035000  0.45926667  0.02110000  1.0
  O2-  O108  1  0.64630000  0.48036667  0.58810000  1.0
  O2-  O109  1  0.14630000  0.48036667  0.58810000  1.0
  O2-  O110  1  0.89630000  0.04736667  0.52110000  1.0
  O2-  O111  1  0.39630000  0.04736667  0.52110000  1.0
  O2-  O112  1  0.84315000  0.26486667  0.52110000  1.0
  O2-  O113  1  0.34315000  0.26486667  0.52110000  1.0
  O2-  O114  1  0.59315000  0.37406667  0.91190000  1.0
  O2-  O115  1  0.09315000  0.37406667  0.91190000  1.0
  O2-  O116  1  0.79910000  0.35296667  0.02110000  1.0
  O2-  O117  1  0.29910000  0.35296667  0.02110000  1.0
  O2-  O118  1  0.54910000  0.78596667  0.08810000  1.0
  O2-  O119  1  0.04910000  0.78596667  0.08810000  1.0
  O2-  O120  1  0.65685000  0.06846667  0.47890000  1.0
  O2-  O121  1  0.15685000  0.06846667  0.47890000  1.0
  O2-  O122  1  0.90685000  0.95926667  0.08810000  1.0
  O2-  O123  1  0.40685000  0.95926667  0.08810000  1.0
  O2-  O124  1  0.70090000  0.98036667  0.97890000  1.0
  O2-  O125  1  0.20090000  0.98036667  0.97890000  1.0
  O2-  O126  1  0.95090000  0.54736667  0.91190000  1.0
  O2-  O127  1  0.45090000  0.54736667  0.91190000  1.0
  O2-  O128  1  0.79500000  0.35076667  0.29910000  1.0
  O2-  O129  1  0.29500000  0.35076667  0.29910000  1.0
  O2-  O130  1  0.54500000  0.05576667  0.09410000  1.0
  O2-  O131  1  0.04500000  0.05576667  0.09410000  1.0
  O2-  O132  1  0.94455000  0.14986667  0.70090000  1.0
  O2-  O133  1  0.44455000  0.14986667  0.70090000  1.0
  O2-  O134  1  0.69455000  0.75666667  0.59410000  1.0
  O2-  O135  1  0.19455000  0.75666667  0.59410000  1.0
  O2-  O136  1  0.70500000  0.98256667  0.70090000  1.0
  O2-  O137  1  0.20500000  0.98256667  0.70090000  1.0
  O2-  O138  1  0.95500000  0.27756667  0.90590000  1.0
  O2-  O139  1  0.45500000  0.27756667  0.90590000  1.0
  O2-  O140  1  0.55545000  0.18346667  0.29910000  1.0
  O2-  O141  1  0.05545000  0.18346667  0.29910000  1.0
  O2-  O142  1  0.80545000  0.57666667  0.40590000  1.0
  O2-  O143  1  0.30545000  0.57666667  0.40590000  1.0
  O2-  O144  1  0.99160000  0.85076667  0.40590000  1.0
  O2-  O145  1  0.49160000  0.85076667  0.40590000  1.0
  O2-  O146  1  0.74160000  0.55576667  0.20090000  1.0
  O2-  O147  1  0.24160000  0.55576667  0.20090000  1.0
  O2-  O148  1  0.59205000  0.64986667  0.90590000  1.0
  O2-  O149  1  0.09205000  0.64986667  0.90590000  1.0
  O2-  O150  1  0.84205000  0.25666667  0.79910000  1.0
  O2-  O151  1  0.34205000  0.25666667  0.79910000  1.0
  O2-  O152  1  0.50840000  0.48256667  0.59410000  1.0
  O2-  O153  1  0.00840000  0.48256667  0.59410000  1.0
  O2-  O154  1  0.75840000  0.77756667  0.79910000  1.0
  O2-  O155  1  0.25840000  0.77756667  0.79910000  1.0
  O2-  O156  1  0.90795000  0.68346667  0.09410000  1.0
  O2-  O157  1  0.40795000  0.68346667  0.09410000  1.0
  O2-  O158  1  0.65795000  0.07666667  0.20090000  1.0
  O2-  O159  1  0.15795000  0.07666667  0.20090000  1.0
  O2-  O160  1  0.79765000  0.08476667  0.37740000  1.0
  O2-  O161  1  0.29765000  0.08476667  0.37740000  1.0
  O2-  O162  1  0.54765000  0.13936667  0.82280000  1.0
  O2-  O163  1  0.04765000  0.13936667  0.82280000  1.0
  O2-  O164  1  0.98635000  0.96216667  0.62260000  1.0
  O2-  O165  1  0.48635000  0.96216667  0.62260000  1.0
  O2-  O166  1  0.73635000  0.76196667  0.32280000  1.0
  O2-  O167  1  0.23635000  0.76196667  0.32280000  1.0
  O2-  O168  1  0.70235000  0.24856667  0.62260000  1.0
  O2-  O169  1  0.20235000  0.24856667  0.62260000  1.0
  O2-  O170  1  0.95235000  0.19396667  0.17720000  1.0
  O2-  O171  1  0.45235000  0.19396667  0.17720000  1.0
  O2-  O172  1  0.51365000  0.37116667  0.37740000  1.0
  O2-  O173  1  0.01365000  0.37116667  0.37740000  1.0
  O2-  O174  1  0.76365000  0.57136667  0.67720000  1.0
  O2-  O175  1  0.26365000  0.57136667  0.67720000  1.0
  O2-  O176  1  0.89775000  0.58476667  0.67720000  1.0
  O2-  O177  1  0.39775000  0.58476667  0.67720000  1.0
  O2-  O178  1  0.64775000  0.63936667  0.12260000  1.0
  O2-  O179  1  0.14775000  0.63936667  0.12260000  1.0
  O2-  O180  1  0.95905000  0.46216667  0.17720000  1.0
  O2-  O181  1  0.45905000  0.46216667  0.17720000  1.0
  O2-  O182  1  0.70905000  0.26196667  0.87740000  1.0
  O2-  O183  1  0.20905000  0.26196667  0.87740000  1.0
  O2-  O184  1  0.60225000  0.74856667  0.32280000  1.0
  O2-  O185  1  0.10225000  0.74856667  0.32280000  1.0
  O2-  O186  1  0.85225000  0.69396667  0.87740000  1.0
  O2-  O187  1  0.35225000  0.69396667  0.87740000  1.0
  O2-  O188  1  0.54095000  0.87116667  0.82280000  1.0
  O2-  O189  1  0.04095000  0.87116667  0.82280000  1.0
  O2-  O190  1  0.79095000  0.07136667  0.12260000  1.0
  O2-  O191  1  0.29095000  0.07136667  0.12260000  1.0
