# generated using pymatgen
data_Li7La3Zr2O12
_symmetry_space_group_name_H-M   'P 1'
_cell_length_a   11.24005651
_cell_length_b   22.48011302
_cell_length_c   11.24005651
_cell_angle_alpha   108.49999064
_cell_angle_beta   108.49999064
_cell_angle_gamma   111.43164730
_symmetry_Int_Tables_number   1
_chemical_formula_structural   Li7La3Zr2O12
_chemical_formula_sum   'Li56 La24 Zr16 O96'
_cell_volume   2184.39227151
_cell_formula_units_Z   8
loop_
 _symmetry_equiv_pos_site_id
 _symmetry_equiv_pos_as_xyz
  1  'x, y, z'
loop_
 _atom_type_symbol
 _atom_type_oxidation_number
  Li+  1.0
  La3+  3.0
  Zr4+  4.0
  O2-  -2.0
loop_
 _atom_site_type_symbol
 _atom_site_label
 _atom_site_symmetry_multiplicity
 _atom_site_fract_x
 _atom_site_fract_y
 _atom_site_fract_z
 _atom_site_occupancy
  Li+  Li1  1  0.87500000  0.31250000  0.75000000  1.0
  Li+  Li1  1  0.87500000  0.81250000  0.75000000  1.0
  Li+  Li1  1  0.37500000  0.06250000  0.75000000  1.0
  Li+  Li1  1  0.37500000  0.56250000  0.75000000  1.0
  Li+  Li1  1  0.62500000  0.43750000  0.25000000  1.0
  Li+  Li1  1  0.62500000  0.93750000  0.25000000  1.0
  Li+  Li1  1  0.12500000  0.18750000  0.25000000  1.0
  Li+  Li1  1  0.12500000  0.68750000  0.25000000  1.0
  Li+  Li2  1  0.30630000  0.34685000  0.75000000  1.0
  Li+  Li2  1  0.30630000  0.84685000  0.75000000  1.0
  Li+  Li2  1  0.44370000  0.09685000  0.38740000  1.0
  Li+  Li2  1  0.44370000  0.59685000  0.38740000  1.0
  Li+  Li2  1  0.05630000  0.47185000  0.25000000  1.0
  Li+  Li2  1  0.05630000  0.97185000  0.25000000  1.0
  Li+  Li2  1  0.19370000  0.22185000  0.88740000  1.0
  Li+  Li2  1  0.19370000  0.72185000  0.88740000  1.0
  Li+  Li2  1  0.69370000  0.15315000  0.25000000  1.0
  Li+  Li2  1  0.69370000  0.65315000  0.25000000  1.0
  Li+  Li2  1  0.55630000  0.40315000  0.61260000  1.0
  Li+  Li2  1  0.55630000  0.90315000  0.61260000  1.0
  Li+  Li2  1  0.94370000  0.02815000  0.75000000  1.0
  Li+  Li2  1  0.94370000  0.52815000  0.75000000  1.0
  Li+  Li2  1  0.80630000  0.27815000  0.11260000  1.0
  Li+  Li2  1  0.80630000  0.77815000  0.11260000  1.0
  Li+  Li3  1  0.27640000  0.05525000  0.50670000  1.0
  Li+  Li3  1  0.27640000  0.55525000  0.50670000  1.0
  Li+  Li3  1  0.10380000  0.30525000  0.83410000  1.0
  Li+  Li3  1  0.10380000  0.80525000  0.83410000  1.0
  Li+  Li3  1  0.26970000  0.30190000  0.49330000  1.0
  Li+  Li3  1  0.26970000  0.80190000  0.49330000  1.0
  Li+  Li3  1  0.61050000  0.05190000  0.33410000  1.0
  Li+  Li3  1  0.61050000  0.55190000  0.33410000  1.0
  Li+  Li3  1  0.72360000  0.44475000  0.49330000  1.0
  Li+  Li3  1  0.72360000  0.94475000  0.49330000  1.0
  Li+  Li3  1  0.89620000  0.19475000  0.16590000  1.0
  Li+  Li3  1  0.89620000  0.69475000  0.16590000  1.0
  Li+  Li3  1  0.73030000  0.19810000  0.50670000  1.0
  Li+  Li3  1  0.73030000  0.69810000  0.50670000  1.0
  Li+  Li3  1  0.38950000  0.44810000  0.66590000  1.0
  Li+  Li3  1  0.38950000  0.94810000  0.66590000  1.0
  Li+  Li3  1  0.77640000  0.38485000  0.66590000  1.0
  Li+  Li3  1  0.77640000  0.88485000  0.66590000  1.0
  Li+  Li3  1  0.60380000  0.13485000  0.99330000  1.0
  Li+  Li3  1  0.60380000  0.63485000  0.99330000  1.0
  Li+  Li3  1  0.76970000  0.38820000  0.16590000  1.0
  Li+  Li3  1  0.76970000  0.88820000  0.16590000  1.0
  Li+  Li3  1  0.11050000  0.13820000  0.00670000  1.0
  Li+  Li3  1  0.11050000  0.63820000  0.00670000  1.0
  Li+  Li3  1  0.22360000  0.11515000  0.33410000  1.0
  Li+  Li3  1  0.22360000  0.61515000  0.33410000  1.0
  Li+  Li3  1  0.39620000  0.36515000  0.00670000  1.0
  Li+  Li3  1  0.39620000  0.86515000  0.00670000  1.0
  Li+  Li3  1  0.23030000  0.11180000  0.83410000  1.0
  Li+  Li3  1  0.23030000  0.61180000  0.83410000  1.0
  Li+  Li3  1  0.88950000  0.36180000  0.99330000  1.0
  Li+  Li3  1  0.88950000  0.86180000  0.99330000  1.0
  La3+  La1  1  0.12500000  0.43750000  0.75000000  1.0
  La3+  La1  1  0.12500000  0.93750000  0.75000000  1.0
  La3+  La1  1  0.62500000  0.18750000  0.75000000  1.0
  La3+  La1  1  0.62500000  0.68750000  0.75000000  1.0
  La3+  La1  1  0.87500000  0.06250000  0.25000000  1.0
  La3+  La1  1  0.87500000  0.56250000  0.25000000  1.0
  La3+  La1  1  0.37500000  0.31250000  0.25000000  1.0
  La3+  La1  1  0.37500000  0.81250000  0.25000000  1.0
  La3+  La2  1  0.75000000  0.31142000  0.37284000  1.0
  La3+  La2  1  0.75000000  0.81142000  0.37284000  1.0
  La3+  La2  1  0.75000000  0.06142000  0.87284000  1.0
  La3+  La2  1  0.75000000  0.56142000  0.87284000  1.0
  La3+  La2  1  0.87716000  0.12500000  0.62716000  1.0
  La3+  La2  1  0.87716000  0.62500000  0.62716000  1.0
  La3+  La2  1  0.12284000  0.37500000  0.37284000  1.0
  La3+  La2  1  0.12284000  0.87500000  0.37284000  1.0
  La3+  La2  1  0.25000000  0.18858000  0.62716000  1.0
  La3+  La2  1  0.25000000  0.68858000  0.62716000  1.0
  La3+  La2  1  0.25000000  0.43858000  0.12716000  1.0
  La3+  La2  1  0.25000000  0.93858000  0.12716000  1.0
  La3+  La2  1  0.37716000  0.12500000  0.12716000  1.0
  La3+  La2  1  0.37716000  0.62500000  0.12716000  1.0
  La3+  La2  1  0.62284000  0.37500000  0.87284000  1.0
  La3+  La2  1  0.62284000  0.87500000  0.87284000  1.0
  Zr4+  Zr1  1  0.00000000  0.00000000  0.50000000  1.0
  Zr4+  Zr1  1  0.00000000  0.50000000  0.50000000  1.0
  Zr4+  Zr1  1  0.00000000  0.25000000  0.00000000  1.0
  Zr4+  Zr1  1  0.00000000  0.75000000  0.00000000  1.0
  Zr4+  Zr1  1  0.00000000  0.25000000  0.50000000  1.0
  Zr4+  Zr1  1  0.00000000  0.75000000  0.50000000  1.0
  Zr4+  Zr1  1  0.50000000  0.00000000  0.50000000  1.0
  Zr4+  Zr1  1  0.50000000  0.50000000  0.50000000  1.0
  Zr4+  Zr1  1  0.50000000  0.25000000  0.50000000  1.0
  Zr4+  Zr1  1  0.50000000  0.75000000  0.50000000  1.0
  Zr4+  Zr1  1  0.50000000  0.00000000  0.00000000  1.0
  Zr4+  Zr1  1  0.50000000  0.50000000  0.00000000  1.0
  Zr4+  Zr1  1  0.50000000  0.25000000  0.00000000  1.0
  Zr4+  Zr1  1  0.50000000  0.75000000  0.00000000  1.0
  Zr4+  Zr1  1  0.00000000  0.00000000  0.00000000  1.0
  Zr4+  Zr1  1  0.00000000  0.50000000  0.00000000  1.0
  O2-  O1  1  0.90180000  0.44035000  0.58810000  1.0
  O2-  O1  1  0.90180000  0.94035000  0.58810000  1.0
  O2-  O1  1  0.79260000  0.19035000  0.97890000  1.0
  O2-  O1  1  0.79260000  0.69035000  0.97890000  1.0
  O2-  O1  1  0.81370000  0.14630000  0.41190000  1.0
  O2-  O1  1  0.81370000  0.64630000  0.41190000  1.0
  O2-  O1  1  0.38070000  0.39630000  0.47890000  1.0
  O2-  O1  1  0.38070000  0.89630000  0.47890000  1.0
  O2-  O1  1  0.09820000  0.05965000  0.41190000  1.0
  O2-  O1  1  0.09820000  0.55965000  0.41190000  1.0
  O2-  O1  1  0.20740000  0.30965000  0.02110000  1.0
  O2-  O1  1  0.20740000  0.80965000  0.02110000  1.0
  O2-  O1  1  0.18630000  0.35370000  0.58810000  1.0
  O2-  O1  1  0.18630000  0.85370000  0.58810000  1.0
  O2-  O1  1  0.61930000  0.10370000  0.52110000  1.0
  O2-  O1  1  0.61930000  0.60370000  0.52110000  1.0
  O2-  O1  1  0.40180000  0.15685000  0.52110000  1.0
  O2-  O1  1  0.40180000  0.65685000  0.52110000  1.0
  O2-  O1  1  0.29260000  0.40685000  0.91190000  1.0
  O2-  O1  1  0.29260000  0.90685000  0.91190000  1.0
  O2-  O1  1  0.31370000  0.20090000  0.02110000  1.0
  O2-  O1  1  0.31370000  0.70090000  0.02110000  1.0
  O2-  O1  1  0.88070000  0.45090000  0.08810000  1.0
  O2-  O1  1  0.88070000  0.95090000  0.08810000  1.0
  O2-  O1  1  0.59820000  0.34315000  0.47890000  1.0
  O2-  O1  1  0.59820000  0.84315000  0.47890000  1.0
  O2-  O1  1  0.70740000  0.09315000  0.08810000  1.0
  O2-  O1  1  0.70740000  0.59315000  0.08810000  1.0
  O2-  O1  1  0.68630000  0.29910000  0.97890000  1.0
  O2-  O1  1  0.68630000  0.79910000  0.97890000  1.0
  O2-  O1  1  0.11930000  0.04910000  0.91190000  1.0
  O2-  O1  1  0.11930000  0.54910000  0.91190000  1.0
  O2-  O2  1  0.31590000  0.20500000  0.29910000  1.0
  O2-  O2  1  0.31590000  0.70500000  0.29910000  1.0
  O2-  O2  1  0.61090000  0.45500000  0.09410000  1.0
  O2-  O2  1  0.61090000  0.95500000  0.09410000  1.0
  O2-  O2  1  0.51680000  0.05545000  0.70090000  1.0
  O2-  O2  1  0.51680000  0.55545000  0.70090000  1.0
  O2-  O2  1  0.91000000  0.30545000  0.59410000  1.0
  O2-  O2  1  0.91000000  0.80545000  0.59410000  1.0
  O2-  O2  1  0.68410000  0.29500000  0.70090000  1.0
  O2-  O2  1  0.68410000  0.79500000  0.70090000  1.0
  O2-  O2  1  0.38910000  0.04500000  0.90590000  1.0
  O2-  O2  1  0.38910000  0.54500000  0.90590000  1.0
  O2-  O2  1  0.48320000  0.44455000  0.29910000  1.0
  O2-  O2  1  0.48320000  0.94455000  0.29910000  1.0
  O2-  O2  1  0.09000000  0.19455000  0.40590000  1.0
  O2-  O2  1  0.09000000  0.69455000  0.40590000  1.0
  O2-  O2  1  0.81590000  0.00840000  0.40590000  1.0
  O2-  O2  1  0.81590000  0.50840000  0.40590000  1.0
  O2-  O2  1  0.11090000  0.25840000  0.20090000  1.0
  O2-  O2  1  0.11090000  0.75840000  0.20090000  1.0
  O2-  O2  1  0.01680000  0.40795000  0.90590000  1.0
  O2-  O2  1  0.01680000  0.90795000  0.90590000  1.0
  O2-  O2  1  0.41000000  0.15795000  0.79910000  1.0
  O2-  O2  1  0.41000000  0.65795000  0.79910000  1.0
  O2-  O2  1  0.18410000  0.49160000  0.59410000  1.0
  O2-  O2  1  0.18410000  0.99160000  0.59410000  1.0
  O2-  O2  1  0.88910000  0.24160000  0.79910000  1.0
  O2-  O2  1  0.88910000  0.74160000  0.79910000  1.0
  O2-  O2  1  0.98320000  0.09205000  0.09410000  1.0
  O2-  O2  1  0.98320000  0.59205000  0.09410000  1.0
  O2-  O2  1  0.59000000  0.34205000  0.20090000  1.0
  O2-  O2  1  0.59000000  0.84205000  0.20090000  1.0
  O2-  O3  1  0.58190000  0.20235000  0.37740000  1.0
  O2-  O3  1  0.58190000  0.70235000  0.37740000  1.0
  O2-  O3  1  0.52730000  0.45235000  0.82280000  1.0
  O2-  O3  1  0.52730000  0.95235000  0.82280000  1.0
  O2-  O3  1  0.70450000  0.01365000  0.62260000  1.0
  O2-  O3  1  0.70450000  0.51365000  0.62260000  1.0
  O2-  O3  1  0.90470000  0.26365000  0.32280000  1.0
  O2-  O3  1  0.90470000  0.76365000  0.32280000  1.0
  O2-  O3  1  0.41810000  0.29765000  0.62260000  1.0
  O2-  O3  1  0.41810000  0.79765000  0.62260000  1.0
  O2-  O3  1  0.47270000  0.04765000  0.17720000  1.0
  O2-  O3  1  0.47270000  0.54765000  0.17720000  1.0
  O2-  O3  1  0.29550000  0.48635000  0.37740000  1.0
  O2-  O3  1  0.29550000  0.98635000  0.37740000  1.0
  O2-  O3  1  0.09530000  0.23635000  0.67720000  1.0
  O2-  O3  1  0.09530000  0.73635000  0.67720000  1.0
  O2-  O3  1  0.08190000  0.10225000  0.67720000  1.0
  O2-  O3  1  0.08190000  0.60225000  0.67720000  1.0
  O2-  O3  1  0.02730000  0.35225000  0.12260000  1.0
  O2-  O3  1  0.02730000  0.85225000  0.12260000  1.0
  O2-  O3  1  0.20450000  0.04095000  0.17720000  1.0
  O2-  O3  1  0.20450000  0.54095000  0.17720000  1.0
  O2-  O3  1  0.40470000  0.29095000  0.87740000  1.0
  O2-  O3  1  0.40470000  0.79095000  0.87740000  1.0
  O2-  O3  1  0.91810000  0.39775000  0.32280000  1.0
  O2-  O3  1  0.91810000  0.89775000  0.32280000  1.0
  O2-  O3  1  0.97270000  0.14775000  0.87740000  1.0
  O2-  O3  1  0.97270000  0.64775000  0.87740000  1.0
  O2-  O3  1  0.79550000  0.45905000  0.82280000  1.0
  O2-  O3  1  0.79550000  0.95905000  0.82280000  1.0
  O2-  O3  1  0.59530000  0.20905000  0.12260000  1.0
  O2-  O3  1  0.59530000  0.70905000  0.12260000  1.0
