# generated using pymatgen
data_Li17Al7Ge13(PO4)30
_symmetry_space_group_name_H-M   'P 1'
_cell_length_a   8.25247000
_cell_length_b   8.38341527
_cell_length_c   41.26235000
_cell_angle_alpha   60.51535973
_cell_angle_beta   120.00000000
_cell_angle_gamma   119.48464027
_symmetry_Int_Tables_number   1
_chemical_formula_structural   Li17Al7Ge13(PO4)30
_chemical_formula_sum   'Li17 Al7 Ge13 P30 O120'
_cell_volume   2034.15170872
_cell_formula_units_Z   1
loop_
 _symmetry_equiv_pos_site_id
 _symmetry_equiv_pos_as_xyz
  1  'x, y, z'
loop_
 _atom_type_symbol
 _atom_type_oxidation_number
  Li+  1.0
  Al3+  3.0
  Ge4+  4.0
  P5+  5.0
  O2-  -2.0
loop_
 _atom_site_type_symbol
 _atom_site_label
 _atom_site_symmetry_multiplicity
 _atom_site_fract_x
 _atom_site_fract_y
 _atom_site_fract_z
 _atom_site_occupancy
  Li+  Li0  1  0.67176254  0.32509744  0.66640415  1.0
  Li+  Li1  1  0.42670000  0.32810000  0.70386000  1.0
  Li+  Li2  1  0.42670000  0.32810000  0.10386000  1.0
  Li+  Li3  1  0.92670000  0.82810000  0.71586000  1.0
  Li+  Li4  1  0.92660651  0.82448372  0.51642600  1.0
  Li+  Li5  1  0.92392016  0.83148979  0.11137093  1.0
  Li+  Li6  1  0.17070000  0.82810000  0.80386000  1.0
  Li+  Li7  1  0.76930000  0.67190000  0.28414000  1.0
  Li+  Li8  1  0.57330000  0.67190000  0.79614000  1.0
  Li+  Li9  1  0.07330000  0.17190000  0.38414000  1.0
  Li+  Li10  1  0.07330000  0.17190000  0.18414000  1.0
  Li+  Li11  1  0.82930000  0.17190000  0.29614000  1.0
  Li+  Li12  1  0.50040465  0.49918220  0.84950148  1.0
  Li+  Li13  1  0.00000000  0.00000000  0.55000000  1.0
  Li+  Li14  1  0.00000000  0.00000000  0.35000000  1.0
  Li+  Li15  1  0.99963908  0.00032577  0.14747746  1.0
  Li+  Li16  1  0.00000000  0.00000000  0.95000000  1.0
  Al3+  Al17  1  0.35831000  0.07493000  0.27833800  1.0
  Al3+  Al18  1  0.85831000  0.57493000  0.37833800  1.0
  Al3+  Al19  1  0.85831000  0.57493000  0.17833800  1.0
  Al3+  Al20  1  0.85831000  0.57493000  0.77833800  1.0
  Al3+  Al21  1  0.64169000  0.92507000  0.62166200  1.0
  Al3+  Al22  1  0.64169000  0.92507000  0.82166200  1.0
  Al3+  Al23  1  0.14169000  0.42507000  0.72166200  1.0
  Ge4+  Ge24  1  0.36055775  0.07775492  0.67683006  1.0
  Ge4+  Ge25  1  0.35831000  0.07493000  0.47833800  1.0
  Ge4+  Ge26  1  0.35831000  0.07493000  0.07833800  1.0
  Ge4+  Ge27  1  0.35831000  0.07493000  0.87833800  1.0
  Ge4+  Ge28  1  0.85831000  0.57493000  0.57833800  1.0
  Ge4+  Ge29  1  0.85831000  0.57493000  0.97833800  1.0
  Ge4+  Ge30  1  0.64220851  0.92585490  0.41887276  1.0
  Ge4+  Ge31  1  0.64169000  0.92507000  0.22166200  1.0
  Ge4+  Ge32  1  0.64169000  0.92507000  0.02166200  1.0
  Ge4+  Ge33  1  0.14169000  0.42507000  0.52166200  1.0
  Ge4+  Ge34  1  0.14169000  0.42507000  0.32166200  1.0
  Ge4+  Ge35  1  0.14169000  0.42507000  0.12166200  1.0
  Ge4+  Ge36  1  0.14169000  0.42507000  0.92166200  1.0
  P5+  P37  1  0.25000000  0.75000000  0.55748000  1.0
  P5+  P38  1  0.24868935  0.74873237  0.35965232  1.0
  P5+  P39  1  0.25000000  0.75000000  0.15748000  1.0
  P5+  P40  1  0.25120503  0.75138489  0.96176519  1.0
  P5+  P41  1  0.25000000  0.75000000  0.75748000  1.0
  P5+  P42  1  0.53740000  0.75000000  0.70000000  1.0
  P5+  P43  1  0.53740000  0.75000000  0.50000000  1.0
  P5+  P44  1  0.53740000  0.75000000  0.30000000  1.0
  P5+  P45  1  0.53740000  0.75000000  0.10000000  1.0
  P5+  P46  1  0.53615901  0.75060575  0.89643045  1.0
  P5+  P47  1  0.96534219  0.74807554  0.64291408  1.0
  P5+  P48  1  0.96260000  0.75000000  0.44252000  1.0
  P5+  P49  1  0.96260000  0.75000000  0.24252000  1.0
  P5+  P50  1  0.96260000  0.75000000  0.04252000  1.0
  P5+  P51  1  0.96260000  0.75000000  0.84252000  1.0
  P5+  P52  1  0.46240480  0.25167188  0.59848956  1.0
  P5+  P53  1  0.46260000  0.25000000  0.40000000  1.0
  P5+  P54  1  0.46260000  0.25000000  0.20000000  1.0
  P5+  P55  1  0.46348600  0.24739745  0.99931266  1.0
  P5+  P56  1  0.46260000  0.25000000  0.80000000  1.0
  P5+  P57  1  0.03740000  0.25000000  0.65748000  1.0
  P5+  P58  1  0.03826172  0.24490342  0.45710178  1.0
  P5+  P59  1  0.03600698  0.25245477  0.26078430  1.0
  P5+  P60  1  0.03740000  0.25000000  0.05748000  1.0
  P5+  P61  1  0.03285788  0.25352579  0.85197114  1.0
  P5+  P62  1  0.75018374  0.25516278  0.74246969  1.0
  P5+  P63  1  0.75000000  0.25000000  0.54252000  1.0
  P5+  P64  1  0.75000000  0.25000000  0.34252000  1.0
  P5+  P65  1  0.75508307  0.25155652  0.13993077  1.0
  P5+  P66  1  0.75000000  0.25000000  0.94252000  1.0
  O2-  O67  1  0.28847000  0.93231000  0.72312600  1.0
  O2-  O68  1  0.29266748  0.93240133  0.52175651  1.0
  O2-  O69  1  0.28847000  0.93231000  0.32312600  1.0
  O2-  O70  1  0.28847000  0.93231000  0.12312600  1.0
  O2-  O71  1  0.28847000  0.93231000  0.92312600  1.0
  O2-  O72  1  0.50947000  0.93231000  0.69230600  1.0
  O2-  O73  1  0.50947000  0.93231000  0.49230600  1.0
  O2-  O74  1  0.50947000  0.93231000  0.29230600  1.0
  O2-  O75  1  0.50947000  0.93231000  0.09230600  1.0
  O2-  O76  1  0.50798300  0.93200318  0.89576374  1.0
  O2-  O77  1  0.13437000  0.93231000  0.64810600  1.0
  O2-  O78  1  0.13289839  0.93415808  0.44953458  1.0
  O2-  O79  1  0.13437000  0.93231000  0.24810600  1.0
  O2-  O80  1  0.13437000  0.93231000  0.04810600  1.0
  O2-  O81  1  0.13437000  0.93231000  0.84810600  1.0
  O2-  O82  1  0.63437000  0.43231000  0.59230600  1.0
  O2-  O83  1  0.63138355  0.43412615  0.39252953  1.0
  O2-  O84  1  0.63437000  0.43231000  0.19230600  1.0
  O2-  O85  1  0.63437000  0.43231000  0.99230600  1.0
  O2-  O86  1  0.63437000  0.43231000  0.79230600  1.0
  O2-  O87  1  0.00947000  0.43231000  0.62312600  1.0
  O2-  O88  1  0.00947000  0.43231000  0.42312600  1.0
  O2-  O89  1  0.00947000  0.43231000  0.22312600  1.0
  O2-  O90  1  0.00947000  0.43231000  0.02312600  1.0
  O2-  O91  1  0.01164438  0.43094133  0.82778470  1.0
  O2-  O92  1  0.78847000  0.43231000  0.74810600  1.0
  O2-  O93  1  0.78793415  0.43232812  0.54513897  1.0
  O2-  O94  1  0.78847000  0.43231000  0.34810600  1.0
  O2-  O95  1  0.79052290  0.42802937  0.14698968  1.0
  O2-  O96  1  0.78847000  0.43231000  0.94810600  1.0
  O2-  O97  1  0.71153000  0.06769000  0.57687400  1.0
  O2-  O98  1  0.71153000  0.06769000  0.37687400  1.0
  O2-  O99  1  0.71153000  0.06769000  0.17687400  1.0
  O2-  O100  1  0.71153000  0.06769000  0.97687400  1.0
  O2-  O101  1  0.71153000  0.06769000  0.77687400  1.0
  O2-  O102  1  0.49053000  0.06769000  0.60769400  1.0
  O2-  O103  1  0.49053000  0.06769000  0.40769400  1.0
  O2-  O104  1  0.49053000  0.06769000  0.20769400  1.0
  O2-  O105  1  0.49053000  0.06769000  0.00769400  1.0
  O2-  O106  1  0.48787939  0.06938480  0.81050684  1.0
  O2-  O107  1  0.86563000  0.06769000  0.65189400  1.0
  O2-  O108  1  0.86563000  0.06769000  0.45189400  1.0
  O2-  O109  1  0.86563000  0.06769000  0.25189400  1.0
  O2-  O110  1  0.86563000  0.06769000  0.05189400  1.0
  O2-  O111  1  0.86205233  0.06680204  0.84894414  1.0
  O2-  O112  1  0.36563000  0.56769000  0.70769400  1.0
  O2-  O113  1  0.36563000  0.56769000  0.50769400  1.0
  O2-  O114  1  0.36563000  0.56769000  0.30769400  1.0
  O2-  O115  1  0.36346075  0.56949344  0.11145972  1.0
  O2-  O116  1  0.36563000  0.56769000  0.90769400  1.0
  O2-  O117  1  0.99465723  0.56960161  0.67828283  1.0
  O2-  O118  1  0.99053000  0.56769000  0.47687400  1.0
  O2-  O119  1  0.99053000  0.56769000  0.27687400  1.0
  O2-  O120  1  0.99026328  0.56605563  0.07941888  1.0
  O2-  O121  1  0.99053000  0.56769000  0.87687400  1.0
  O2-  O122  1  0.21153000  0.56769000  0.55189400  1.0
  O2-  O123  1  0.21153000  0.56769000  0.35189400  1.0
  O2-  O124  1  0.21153000  0.56769000  0.15189400  1.0
  O2-  O125  1  0.21153000  0.56769000  0.95189400  1.0
  O2-  O126  1  0.21330646  0.56411395  0.75349032  1.0
  O2-  O127  1  0.57728000  0.24554000  0.70426400  1.0
  O2-  O128  1  0.57728000  0.24554000  0.50426400  1.0
  O2-  O129  1  0.57728000  0.24554000  0.30426400  1.0
  O2-  O130  1  0.57633361  0.24668677  0.10230381  1.0
  O2-  O131  1  0.57728000  0.24554000  0.90426400  1.0
  O2-  O132  1  0.43958000  0.24554000  0.63454400  1.0
  O2-  O133  1  0.43958000  0.24554000  0.43454400  1.0
  O2-  O134  1  0.44285727  0.24682129  0.23451888  1.0
  O2-  O135  1  0.43958000  0.24554000  0.03454400  1.0
  O2-  O136  1  0.43958000  0.24554000  0.83454400  1.0
  O2-  O137  1  0.22868000  0.24554000  0.66208400  1.0
  O2-  O138  1  0.22868000  0.24554000  0.46208400  1.0
  O2-  O139  1  0.22819476  0.24104301  0.26414694  1.0
  O2-  O140  1  0.22868000  0.24554000  0.06208400  1.0
  O2-  O141  1  0.22210980  0.24274425  0.86166962  1.0
  O2-  O142  1  0.72583100  0.74357761  0.73435533  1.0
  O2-  O143  1  0.72868000  0.74554000  0.53454400  1.0
  O2-  O144  1  0.73030746  0.74455692  0.33352678  1.0
  O2-  O145  1  0.72868000  0.74554000  0.13454400  1.0
  O2-  O146  1  0.73064195  0.74879833  0.93235385  1.0
  O2-  O147  1  0.93958000  0.74554000  0.60426400  1.0
  O2-  O148  1  0.93958000  0.74554000  0.40426400  1.0
  O2-  O149  1  0.93958000  0.74554000  0.20426400  1.0
  O2-  O150  1  0.94122222  0.74672773  0.00330879  1.0
  O2-  O151  1  0.93958000  0.74554000  0.80426400  1.0
  O2-  O152  1  0.07728000  0.74554000  0.56208400  1.0
  O2-  O153  1  0.07728000  0.74554000  0.36208400  1.0
  O2-  O154  1  0.07837172  0.74690634  0.16814137  1.0
  O2-  O155  1  0.07728000  0.74554000  0.96208400  1.0
  O2-  O156  1  0.07728000  0.74554000  0.76208400  1.0
  O2-  O157  1  0.42272000  0.75446000  0.59573600  1.0
  O2-  O158  1  0.42272000  0.75446000  0.39573600  1.0
  O2-  O159  1  0.42277563  0.75008859  0.19928231  1.0
  O2-  O160  1  0.42272000  0.75446000  0.99573600  1.0
  O2-  O161  1  0.42272000  0.75446000  0.79573600  1.0
  O2-  O162  1  0.56042000  0.75446000  0.66545600  1.0
  O2-  O163  1  0.56042000  0.75446000  0.46545600  1.0
  O2-  O164  1  0.56017236  0.75654273  0.26521906  1.0
  O2-  O165  1  0.56042000  0.75446000  0.06545600  1.0
  O2-  O166  1  0.56042000  0.75446000  0.86545600  1.0
  O2-  O167  1  0.77524566  0.75329605  0.63383080  1.0
  O2-  O168  1  0.77132000  0.75446000  0.43791600  1.0
  O2-  O169  1  0.77132000  0.75446000  0.23791600  1.0
  O2-  O170  1  0.77132000  0.75446000  0.03791600  1.0
  O2-  O171  1  0.77132000  0.75446000  0.83791600  1.0
  O2-  O172  1  0.27132000  0.25446000  0.56545600  1.0
  O2-  O173  1  0.27390234  0.25381668  0.36707367  1.0
  O2-  O174  1  0.27132000  0.25446000  0.16545600  1.0
  O2-  O175  1  0.27132000  0.25446000  0.96545600  1.0
  O2-  O176  1  0.27132000  0.25446000  0.76545600  1.0
  O2-  O177  1  0.05837798  0.25682007  0.69814043  1.0
  O2-  O178  1  0.06042000  0.25446000  0.49573600  1.0
  O2-  O179  1  0.06042000  0.25446000  0.29573600  1.0
  O2-  O180  1  0.06042000  0.25446000  0.09573600  1.0
  O2-  O181  1  0.05991945  0.25275625  0.90059914  1.0
  O2-  O182  1  0.92272000  0.25446000  0.73791600  1.0
  O2-  O183  1  0.92272000  0.25446000  0.53791600  1.0
  O2-  O184  1  0.92272000  0.25446000  0.33791600  1.0
  O2-  O185  1  0.92272000  0.25446000  0.13791600  1.0
  O2-  O186  1  0.92272000  0.25446000  0.93791600  1.0
