# generated using pymatgen
data_Li17Al7Ge13(PO4)30
_symmetry_space_group_name_H-M   'P 1'
_cell_length_a   40.94270612
_cell_length_b   8.18854122
_cell_length_c   8.31847211
_cell_angle_alpha   119.48464027
_cell_angle_beta   119.48464027
_cell_angle_gamma   60.00000000
_symmetry_Int_Tables_number   1
_chemical_formula_structural   Li17Al7Ge13(PO4)30
_chemical_formula_sum   'Li17 Al7 Ge13 P30 O120'
_cell_volume   1987.24355064
_cell_formula_units_Z   1
loop_
 _symmetry_equiv_pos_site_id
 _symmetry_equiv_pos_as_xyz
  1  'x, y, z'
loop_
 _atom_type_symbol
 _atom_type_oxidation_number
  Li+  1.0
  Al3+  3.0
  Ge4+  4.0
  P5+  5.0
  O2-  -2.0
loop_
 _atom_site_type_symbol
 _atom_site_label
 _atom_site_symmetry_multiplicity
 _atom_site_fract_x
 _atom_site_fract_y
 _atom_site_fract_z
 _atom_site_occupancy
  Li+  Li0  1  0.91466000  0.99596667  0.67190000  1.0
  Li+  Li1  1  0.95386000  0.23996667  0.67190000  1.0
  Li+  Li2  1  0.35386000  0.23996667  0.67190000  1.0
  Li+  Li3  1  0.96586000  0.73996667  0.17190000  1.0
  Li+  Li4  1  0.76586000  0.73996667  0.17190000  1.0
  Li+  Li5  1  0.36586000  0.73996667  0.17190000  1.0
  Li+  Li6  1  0.05386000  0.49596667  0.17190000  1.0
  Li+  Li7  1  0.53414000  0.89736667  0.32810000  1.0
  Li+  Li8  1  0.04614000  0.09336667  0.32810000  1.0
  Li+  Li9  1  0.63414000  0.59336667  0.82810000  1.0
  Li+  Li10  1  0.43414000  0.59336667  0.82810000  1.0
  Li+  Li11  1  0.54614000  0.83736667  0.82810000  1.0
  Li+  Li12  1  0.10000000  0.16666667  0.50000000  1.0
  Li+  Li13  1  0.80000000  0.66666667  0.00000000  1.0
  Li+  Li14  1  0.60000000  0.66666667  0.00000000  1.0
  Li+  Li15  1  0.40000000  0.66666667  0.00000000  1.0
  Li+  Li16  1  0.20000000  0.66666667  0.00000000  1.0
  Al3+  Al17  1  0.52833800  0.30835667  0.92507000  1.0
  Al3+  Al18  1  0.62833800  0.80835667  0.42507000  1.0
  Al3+  Al19  1  0.42833800  0.80835667  0.42507000  1.0
  Al3+  Al20  1  0.02833800  0.80835667  0.42507000  1.0
  Al3+  Al21  1  0.87166200  0.02497667  0.07493000  1.0
  Al3+  Al22  1  0.07166200  0.02497667  0.07493000  1.0
  Al3+  Al23  1  0.97166200  0.52497667  0.57493000  1.0
  Ge4+  Ge24  1  0.92833800  0.30835667  0.92507000  1.0
  Ge4+  Ge25  1  0.72833800  0.30835667  0.92507000  1.0
  Ge4+  Ge26  1  0.32833800  0.30835667  0.92507000  1.0
  Ge4+  Ge27  1  0.12833800  0.30835667  0.92507000  1.0
  Ge4+  Ge28  1  0.82833800  0.80835667  0.42507000  1.0
  Ge4+  Ge29  1  0.22833800  0.80835667  0.42507000  1.0
  Ge4+  Ge30  1  0.67166200  0.02497667  0.07493000  1.0
  Ge4+  Ge31  1  0.47166200  0.02497667  0.07493000  1.0
  Ge4+  Ge32  1  0.27166200  0.02497667  0.07493000  1.0
  Ge4+  Ge33  1  0.77166200  0.52497667  0.57493000  1.0
  Ge4+  Ge34  1  0.57166200  0.52497667  0.57493000  1.0
  Ge4+  Ge35  1  0.37166200  0.52497667  0.57493000  1.0
  Ge4+  Ge36  1  0.17166200  0.52497667  0.57493000  1.0
  P5+  P37  1  0.80748000  0.41666667  0.25000000  1.0
  P5+  P38  1  0.60748000  0.41666667  0.25000000  1.0
  P5+  P39  1  0.40748000  0.41666667  0.25000000  1.0
  P5+  P40  1  0.20748000  0.41666667  0.25000000  1.0
  P5+  P41  1  0.00748000  0.41666667  0.25000000  1.0
  P5+  P42  1  0.95000000  0.12926667  0.25000000  1.0
  P5+  P43  1  0.75000000  0.12926667  0.25000000  1.0
  P5+  P44  1  0.55000000  0.12926667  0.25000000  1.0
  P5+  P45  1  0.35000000  0.12926667  0.25000000  1.0
  P5+  P46  1  0.15000000  0.12926667  0.25000000  1.0
  P5+  P47  1  0.89252000  0.70406667  0.25000000  1.0
  P5+  P48  1  0.69252000  0.70406667  0.25000000  1.0
  P5+  P49  1  0.49252000  0.70406667  0.25000000  1.0
  P5+  P50  1  0.29252000  0.70406667  0.25000000  1.0
  P5+  P51  1  0.09252000  0.70406667  0.25000000  1.0
  P5+  P52  1  0.85000000  0.20406667  0.75000000  1.0
  P5+  P53  1  0.65000000  0.20406667  0.75000000  1.0
  P5+  P54  1  0.45000000  0.20406667  0.75000000  1.0
  P5+  P55  1  0.25000000  0.20406667  0.75000000  1.0
  P5+  P56  1  0.05000000  0.20406667  0.75000000  1.0
  P5+  P57  1  0.90748000  0.62926667  0.75000000  1.0
  P5+  P58  1  0.70748000  0.62926667  0.75000000  1.0
  P5+  P59  1  0.50748000  0.62926667  0.75000000  1.0
  P5+  P60  1  0.30748000  0.62926667  0.75000000  1.0
  P5+  P61  1  0.10748000  0.62926667  0.75000000  1.0
  P5+  P62  1  0.99252000  0.91666667  0.75000000  1.0
  P5+  P63  1  0.79252000  0.91666667  0.75000000  1.0
  P5+  P64  1  0.59252000  0.91666667  0.75000000  1.0
  P5+  P65  1  0.39252000  0.91666667  0.75000000  1.0
  P5+  P66  1  0.19252000  0.91666667  0.75000000  1.0
  O2-  O67  1  0.97312600  0.37819667  0.06769000  1.0
  O2-  O68  1  0.77312600  0.37819667  0.06769000  1.0
  O2-  O69  1  0.57312600  0.37819667  0.06769000  1.0
  O2-  O70  1  0.37312600  0.37819667  0.06769000  1.0
  O2-  O71  1  0.17312600  0.37819667  0.06769000  1.0
  O2-  O72  1  0.94230600  0.15719667  0.06769000  1.0
  O2-  O73  1  0.74230600  0.15719667  0.06769000  1.0
  O2-  O74  1  0.54230600  0.15719667  0.06769000  1.0
  O2-  O75  1  0.34230600  0.15719667  0.06769000  1.0
  O2-  O76  1  0.14230600  0.15719667  0.06769000  1.0
  O2-  O77  1  0.89810600  0.53229667  0.06769000  1.0
  O2-  O78  1  0.69810600  0.53229667  0.06769000  1.0
  O2-  O79  1  0.49810600  0.53229667  0.06769000  1.0
  O2-  O80  1  0.29810600  0.53229667  0.06769000  1.0
  O2-  O81  1  0.09810600  0.53229667  0.06769000  1.0
  O2-  O82  1  0.84230600  0.03229667  0.56769000  1.0
  O2-  O83  1  0.64230600  0.03229667  0.56769000  1.0
  O2-  O84  1  0.44230600  0.03229667  0.56769000  1.0
  O2-  O85  1  0.24230600  0.03229667  0.56769000  1.0
  O2-  O86  1  0.04230600  0.03229667  0.56769000  1.0
  O2-  O87  1  0.87312600  0.65719667  0.56769000  1.0
  O2-  O88  1  0.67312600  0.65719667  0.56769000  1.0
  O2-  O89  1  0.47312600  0.65719667  0.56769000  1.0
  O2-  O90  1  0.27312600  0.65719667  0.56769000  1.0
  O2-  O91  1  0.07312600  0.65719667  0.56769000  1.0
  O2-  O92  1  0.99810600  0.87819667  0.56769000  1.0
  O2-  O93  1  0.79810600  0.87819667  0.56769000  1.0
  O2-  O94  1  0.59810600  0.87819667  0.56769000  1.0
  O2-  O95  1  0.39810600  0.87819667  0.56769000  1.0
  O2-  O96  1  0.19810600  0.87819667  0.56769000  1.0
  O2-  O97  1  0.82687400  0.95513667  0.93231000  1.0
  O2-  O98  1  0.62687400  0.95513667  0.93231000  1.0
  O2-  O99  1  0.42687400  0.95513667  0.93231000  1.0
  O2-  O100  1  0.22687400  0.95513667  0.93231000  1.0
  O2-  O101  1  0.02687400  0.95513667  0.93231000  1.0
  O2-  O102  1  0.85769400  0.17613667  0.93231000  1.0
  O2-  O103  1  0.65769400  0.17613667  0.93231000  1.0
  O2-  O104  1  0.45769400  0.17613667  0.93231000  1.0
  O2-  O105  1  0.25769400  0.17613667  0.93231000  1.0
  O2-  O106  1  0.05769400  0.17613667  0.93231000  1.0
  O2-  O107  1  0.90189400  0.80103667  0.93231000  1.0
  O2-  O108  1  0.70189400  0.80103667  0.93231000  1.0
  O2-  O109  1  0.50189400  0.80103667  0.93231000  1.0
  O2-  O110  1  0.30189400  0.80103667  0.93231000  1.0
  O2-  O111  1  0.10189400  0.80103667  0.93231000  1.0
  O2-  O112  1  0.95769400  0.30103667  0.43231000  1.0
  O2-  O113  1  0.75769400  0.30103667  0.43231000  1.0
  O2-  O114  1  0.55769400  0.30103667  0.43231000  1.0
  O2-  O115  1  0.35769400  0.30103667  0.43231000  1.0
  O2-  O116  1  0.15769400  0.30103667  0.43231000  1.0
  O2-  O117  1  0.92687400  0.67613667  0.43231000  1.0
  O2-  O118  1  0.72687400  0.67613667  0.43231000  1.0
  O2-  O119  1  0.52687400  0.67613667  0.43231000  1.0
  O2-  O120  1  0.32687400  0.67613667  0.43231000  1.0
  O2-  O121  1  0.12687400  0.67613667  0.43231000  1.0
  O2-  O122  1  0.80189400  0.45513667  0.43231000  1.0
  O2-  O123  1  0.60189400  0.45513667  0.43231000  1.0
  O2-  O124  1  0.40189400  0.45513667  0.43231000  1.0
  O2-  O125  1  0.20189400  0.45513667  0.43231000  1.0
  O2-  O126  1  0.00189400  0.45513667  0.43231000  1.0
  O2-  O127  1  0.95426400  0.08938667  0.75446000  1.0
  O2-  O128  1  0.75426400  0.08938667  0.75446000  1.0
  O2-  O129  1  0.55426400  0.08938667  0.75446000  1.0
  O2-  O130  1  0.35426400  0.08938667  0.75446000  1.0
  O2-  O131  1  0.15426400  0.08938667  0.75446000  1.0
  O2-  O132  1  0.88454400  0.22708667  0.75446000  1.0
  O2-  O133  1  0.68454400  0.22708667  0.75446000  1.0
  O2-  O134  1  0.48454400  0.22708667  0.75446000  1.0
  O2-  O135  1  0.28454400  0.22708667  0.75446000  1.0
  O2-  O136  1  0.08454400  0.22708667  0.75446000  1.0
  O2-  O137  1  0.91208400  0.43798667  0.75446000  1.0
  O2-  O138  1  0.71208400  0.43798667  0.75446000  1.0
  O2-  O139  1  0.51208400  0.43798667  0.75446000  1.0
  O2-  O140  1  0.31208400  0.43798667  0.75446000  1.0
  O2-  O141  1  0.11208400  0.43798667  0.75446000  1.0
  O2-  O142  1  0.98454400  0.93798667  0.25446000  1.0
  O2-  O143  1  0.78454400  0.93798667  0.25446000  1.0
  O2-  O144  1  0.58454400  0.93798667  0.25446000  1.0
  O2-  O145  1  0.38454400  0.93798667  0.25446000  1.0
  O2-  O146  1  0.18454400  0.93798667  0.25446000  1.0
  O2-  O147  1  0.85426400  0.72708667  0.25446000  1.0
  O2-  O148  1  0.65426400  0.72708667  0.25446000  1.0
  O2-  O149  1  0.45426400  0.72708667  0.25446000  1.0
  O2-  O150  1  0.25426400  0.72708667  0.25446000  1.0
  O2-  O151  1  0.05426400  0.72708667  0.25446000  1.0
  O2-  O152  1  0.81208400  0.58938667  0.25446000  1.0
  O2-  O153  1  0.61208400  0.58938667  0.25446000  1.0
  O2-  O154  1  0.41208400  0.58938667  0.25446000  1.0
  O2-  O155  1  0.21208400  0.58938667  0.25446000  1.0
  O2-  O156  1  0.01208400  0.58938667  0.25446000  1.0
  O2-  O157  1  0.84573600  0.24394667  0.24554000  1.0
  O2-  O158  1  0.64573600  0.24394667  0.24554000  1.0
  O2-  O159  1  0.44573600  0.24394667  0.24554000  1.0
  O2-  O160  1  0.24573600  0.24394667  0.24554000  1.0
  O2-  O161  1  0.04573600  0.24394667  0.24554000  1.0
  O2-  O162  1  0.91545600  0.10624667  0.24554000  1.0
  O2-  O163  1  0.71545600  0.10624667  0.24554000  1.0
  O2-  O164  1  0.51545600  0.10624667  0.24554000  1.0
  O2-  O165  1  0.31545600  0.10624667  0.24554000  1.0
  O2-  O166  1  0.11545600  0.10624667  0.24554000  1.0
  O2-  O167  1  0.88791600  0.89534667  0.24554000  1.0
  O2-  O168  1  0.68791600  0.89534667  0.24554000  1.0
  O2-  O169  1  0.48791600  0.89534667  0.24554000  1.0
  O2-  O170  1  0.28791600  0.89534667  0.24554000  1.0
  O2-  O171  1  0.08791600  0.89534667  0.24554000  1.0
  O2-  O172  1  0.81545600  0.39534667  0.74554000  1.0
  O2-  O173  1  0.61545600  0.39534667  0.74554000  1.0
  O2-  O174  1  0.41545600  0.39534667  0.74554000  1.0
  O2-  O175  1  0.21545600  0.39534667  0.74554000  1.0
  O2-  O176  1  0.01545600  0.39534667  0.74554000  1.0
  O2-  O177  1  0.94573600  0.60624667  0.74554000  1.0
  O2-  O178  1  0.74573600  0.60624667  0.74554000  1.0
  O2-  O179  1  0.54573600  0.60624667  0.74554000  1.0
  O2-  O180  1  0.34573600  0.60624667  0.74554000  1.0
  O2-  O181  1  0.14573600  0.60624667  0.74554000  1.0
  O2-  O182  1  0.98791600  0.74394667  0.74554000  1.0
  O2-  O183  1  0.78791600  0.74394667  0.74554000  1.0
  O2-  O184  1  0.58791600  0.74394667  0.74554000  1.0
  O2-  O185  1  0.38791600  0.74394667  0.74554000  1.0
  O2-  O186  1  0.18791600  0.74394667  0.74554000  1.0
