# generated using pymatgen
data_Li17Al7Ge13(PO4)30
_symmetry_space_group_name_H-M   'P 1'
_cell_length_a   8.25247000
_cell_length_b   41.26235000
_cell_length_c   8.38341527
_cell_angle_alpha   60.51535973
_cell_angle_beta   60.51535973
_cell_angle_gamma   60.00000000
_symmetry_Int_Tables_number   1
_chemical_formula_structural   Li17Al7Ge13(PO4)30
_chemical_formula_sum   'Li17 Al7 Ge13 P30 O120'
_cell_volume   2034.15170872
_cell_formula_units_Z   1
loop_
 _symmetry_equiv_pos_site_id
 _symmetry_equiv_pos_as_xyz
  1  'x, y, z'
loop_
 _atom_type_symbol
 _atom_type_oxidation_number
  Li+  1.0
  Al3+  3.0
  Ge4+  4.0
  P5+  5.0
  O2-  -2.0
loop_
 _atom_site_type_symbol
 _atom_site_label
 _atom_site_symmetry_multiplicity
 _atom_site_fract_x
 _atom_site_fract_y
 _atom_site_fract_z
 _atom_site_occupancy
  Li+  Li0  1  0.67070000  0.08534000  0.67190000  1.0
  Li+  Li1  1  0.42670000  0.04614000  0.67190000  1.0
  Li+  Li2  1  0.42670000  0.64614000  0.67190000  1.0
  Li+  Li3  1  0.92670000  0.03414000  0.17190000  1.0
  Li+  Li4  1  0.92670000  0.23414000  0.17190000  1.0
  Li+  Li5  1  0.92670000  0.63414000  0.17190000  1.0
  Li+  Li6  1  0.17070000  0.94614000  0.17190000  1.0
  Li+  Li7  1  0.76930000  0.46586000  0.32810000  1.0
  Li+  Li8  1  0.57330000  0.95386000  0.32810000  1.0
  Li+  Li9  1  0.07330000  0.36586000  0.82810000  1.0
  Li+  Li10  1  0.07330000  0.56586000  0.82810000  1.0
  Li+  Li11  1  0.82930000  0.45386000  0.82810000  1.0
  Li+  Li12  1  0.50000000  0.90000000  0.50000000  1.0
  Li+  Li13  1  0.00000000  0.20000000  0.00000000  1.0
  Li+  Li14  1  0.00000000  0.40000000  0.00000000  1.0
  Li+  Li15  1  0.00000000  0.60000000  0.00000000  1.0
  Li+  Li16  1  0.00000000  0.80000000  0.00000000  1.0
  Al3+  Al17  1  0.35831000  0.47166200  0.92507000  1.0
  Al3+  Al18  1  0.85831000  0.37166200  0.42507000  1.0
  Al3+  Al19  1  0.85831000  0.57166200  0.42507000  1.0
  Al3+  Al20  1  0.85831000  0.97166200  0.42507000  1.0
  Al3+  Al21  1  0.64169000  0.12833800  0.07493000  1.0
  Al3+  Al22  1  0.64169000  0.92833800  0.07493000  1.0
  Al3+  Al23  1  0.14169000  0.02833800  0.57493000  1.0
  Ge4+  Ge24  1  0.35831000  0.07166200  0.92507000  1.0
  Ge4+  Ge25  1  0.35831000  0.27166200  0.92507000  1.0
  Ge4+  Ge26  1  0.35831000  0.67166200  0.92507000  1.0
  Ge4+  Ge27  1  0.35831000  0.87166200  0.92507000  1.0
  Ge4+  Ge28  1  0.85831000  0.17166200  0.42507000  1.0
  Ge4+  Ge29  1  0.85831000  0.77166200  0.42507000  1.0
  Ge4+  Ge30  1  0.64169000  0.32833800  0.07493000  1.0
  Ge4+  Ge31  1  0.64169000  0.52833800  0.07493000  1.0
  Ge4+  Ge32  1  0.64169000  0.72833800  0.07493000  1.0
  Ge4+  Ge33  1  0.14169000  0.22833800  0.57493000  1.0
  Ge4+  Ge34  1  0.14169000  0.42833800  0.57493000  1.0
  Ge4+  Ge35  1  0.14169000  0.62833800  0.57493000  1.0
  Ge4+  Ge36  1  0.14169000  0.82833800  0.57493000  1.0
  P5+  P1  1  0.25000000  0.19252000  0.25000000  1.0
  P5+  P1  1  0.25000000  0.39252000  0.25000000  1.0
  P5+  P1  1  0.25000000  0.59252000  0.25000000  1.0
  P5+  P1  1  0.25000000  0.79252000  0.25000000  1.0
  P5+  P1  1  0.25000000  0.99252000  0.25000000  1.0
  P5+  P1  1  0.53740000  0.05000000  0.25000000  1.0
  P5+  P1  1  0.53740000  0.25000000  0.25000000  1.0
  P5+  P1  1  0.53740000  0.45000000  0.25000000  1.0
  P5+  P1  1  0.53740000  0.65000000  0.25000000  1.0
  P5+  P1  1  0.53740000  0.85000000  0.25000000  1.0
  P5+  P1  1  0.96260000  0.10748000  0.25000000  1.0
  P5+  P1  1  0.96260000  0.30748000  0.25000000  1.0
  P5+  P1  1  0.96260000  0.50748000  0.25000000  1.0
  P5+  P1  1  0.96260000  0.70748000  0.25000000  1.0
  P5+  P1  1  0.96260000  0.90748000  0.25000000  1.0
  P5+  P1  1  0.46260000  0.15000000  0.75000000  1.0
  P5+  P1  1  0.46260000  0.35000000  0.75000000  1.0
  P5+  P1  1  0.46260000  0.55000000  0.75000000  1.0
  P5+  P1  1  0.46260000  0.75000000  0.75000000  1.0
  P5+  P1  1  0.46260000  0.95000000  0.75000000  1.0
  P5+  P1  1  0.03740000  0.09252000  0.75000000  1.0
  P5+  P1  1  0.03740000  0.29252000  0.75000000  1.0
  P5+  P1  1  0.03740000  0.49252000  0.75000000  1.0
  P5+  P1  1  0.03740000  0.69252000  0.75000000  1.0
  P5+  P1  1  0.03740000  0.89252000  0.75000000  1.0
  P5+  P1  1  0.75000000  0.00748000  0.75000000  1.0
  P5+  P1  1  0.75000000  0.20748000  0.75000000  1.0
  P5+  P1  1  0.75000000  0.40748000  0.75000000  1.0
  P5+  P1  1  0.75000000  0.60748000  0.75000000  1.0
  P5+  P1  1  0.75000000  0.80748000  0.75000000  1.0
  O2-  O1  1  0.28847000  0.02687400  0.06769000  1.0
  O2-  O1  1  0.28847000  0.22687400  0.06769000  1.0
  O2-  O1  1  0.28847000  0.42687400  0.06769000  1.0
  O2-  O1  1  0.28847000  0.62687400  0.06769000  1.0
  O2-  O1  1  0.28847000  0.82687400  0.06769000  1.0
  O2-  O1  1  0.50947000  0.05769400  0.06769000  1.0
  O2-  O1  1  0.50947000  0.25769400  0.06769000  1.0
  O2-  O1  1  0.50947000  0.45769400  0.06769000  1.0
  O2-  O1  1  0.50947000  0.65769400  0.06769000  1.0
  O2-  O1  1  0.50947000  0.85769400  0.06769000  1.0
  O2-  O1  1  0.13437000  0.10189400  0.06769000  1.0
  O2-  O1  1  0.13437000  0.30189400  0.06769000  1.0
  O2-  O1  1  0.13437000  0.50189400  0.06769000  1.0
  O2-  O1  1  0.13437000  0.70189400  0.06769000  1.0
  O2-  O1  1  0.13437000  0.90189400  0.06769000  1.0
  O2-  O1  1  0.63437000  0.15769400  0.56769000  1.0
  O2-  O1  1  0.63437000  0.35769400  0.56769000  1.0
  O2-  O1  1  0.63437000  0.55769400  0.56769000  1.0
  O2-  O1  1  0.63437000  0.75769400  0.56769000  1.0
  O2-  O1  1  0.63437000  0.95769400  0.56769000  1.0
  O2-  O1  1  0.00947000  0.12687400  0.56769000  1.0
  O2-  O1  1  0.00947000  0.32687400  0.56769000  1.0
  O2-  O1  1  0.00947000  0.52687400  0.56769000  1.0
  O2-  O1  1  0.00947000  0.72687400  0.56769000  1.0
  O2-  O1  1  0.00947000  0.92687400  0.56769000  1.0
  O2-  O1  1  0.78847000  0.00189400  0.56769000  1.0
  O2-  O1  1  0.78847000  0.20189400  0.56769000  1.0
  O2-  O1  1  0.78847000  0.40189400  0.56769000  1.0
  O2-  O1  1  0.78847000  0.60189400  0.56769000  1.0
  O2-  O1  1  0.78847000  0.80189400  0.56769000  1.0
  O2-  O1  1  0.71153000  0.17312600  0.93231000  1.0
  O2-  O1  1  0.71153000  0.37312600  0.93231000  1.0
  O2-  O1  1  0.71153000  0.57312600  0.93231000  1.0
  O2-  O1  1  0.71153000  0.77312600  0.93231000  1.0
  O2-  O1  1  0.71153000  0.97312600  0.93231000  1.0
  O2-  O1  1  0.49053000  0.14230600  0.93231000  1.0
  O2-  O1  1  0.49053000  0.34230600  0.93231000  1.0
  O2-  O1  1  0.49053000  0.54230600  0.93231000  1.0
  O2-  O1  1  0.49053000  0.74230600  0.93231000  1.0
  O2-  O1  1  0.49053000  0.94230600  0.93231000  1.0
  O2-  O1  1  0.86563000  0.09810600  0.93231000  1.0
  O2-  O1  1  0.86563000  0.29810600  0.93231000  1.0
  O2-  O1  1  0.86563000  0.49810600  0.93231000  1.0
  O2-  O1  1  0.86563000  0.69810600  0.93231000  1.0
  O2-  O1  1  0.86563000  0.89810600  0.93231000  1.0
  O2-  O1  1  0.36563000  0.04230600  0.43231000  1.0
  O2-  O1  1  0.36563000  0.24230600  0.43231000  1.0
  O2-  O1  1  0.36563000  0.44230600  0.43231000  1.0
  O2-  O1  1  0.36563000  0.64230600  0.43231000  1.0
  O2-  O1  1  0.36563000  0.84230600  0.43231000  1.0
  O2-  O1  1  0.99053000  0.07312600  0.43231000  1.0
  O2-  O1  1  0.99053000  0.27312600  0.43231000  1.0
  O2-  O1  1  0.99053000  0.47312600  0.43231000  1.0
  O2-  O1  1  0.99053000  0.67312600  0.43231000  1.0
  O2-  O1  1  0.99053000  0.87312600  0.43231000  1.0
  O2-  O1  1  0.21153000  0.19810600  0.43231000  1.0
  O2-  O1  1  0.21153000  0.39810600  0.43231000  1.0
  O2-  O1  1  0.21153000  0.59810600  0.43231000  1.0
  O2-  O1  1  0.21153000  0.79810600  0.43231000  1.0
  O2-  O1  1  0.21153000  0.99810600  0.43231000  1.0
  O2-  O2  1  0.57728000  0.04573600  0.75446000  1.0
  O2-  O2  1  0.57728000  0.24573600  0.75446000  1.0
  O2-  O2  1  0.57728000  0.44573600  0.75446000  1.0
  O2-  O2  1  0.57728000  0.64573600  0.75446000  1.0
  O2-  O2  1  0.57728000  0.84573600  0.75446000  1.0
  O2-  O2  1  0.43958000  0.11545600  0.75446000  1.0
  O2-  O2  1  0.43958000  0.31545600  0.75446000  1.0
  O2-  O2  1  0.43958000  0.51545600  0.75446000  1.0
  O2-  O2  1  0.43958000  0.71545600  0.75446000  1.0
  O2-  O2  1  0.43958000  0.91545600  0.75446000  1.0
  O2-  O2  1  0.22868000  0.08791600  0.75446000  1.0
  O2-  O2  1  0.22868000  0.28791600  0.75446000  1.0
  O2-  O2  1  0.22868000  0.48791600  0.75446000  1.0
  O2-  O2  1  0.22868000  0.68791600  0.75446000  1.0
  O2-  O2  1  0.22868000  0.88791600  0.75446000  1.0
  O2-  O2  1  0.72868000  0.01545600  0.25446000  1.0
  O2-  O2  1  0.72868000  0.21545600  0.25446000  1.0
  O2-  O2  1  0.72868000  0.41545600  0.25446000  1.0
  O2-  O2  1  0.72868000  0.61545600  0.25446000  1.0
  O2-  O2  1  0.72868000  0.81545600  0.25446000  1.0
  O2-  O2  1  0.93958000  0.14573600  0.25446000  1.0
  O2-  O2  1  0.93958000  0.34573600  0.25446000  1.0
  O2-  O2  1  0.93958000  0.54573600  0.25446000  1.0
  O2-  O2  1  0.93958000  0.74573600  0.25446000  1.0
  O2-  O2  1  0.93958000  0.94573600  0.25446000  1.0
  O2-  O2  1  0.07728000  0.18791600  0.25446000  1.0
  O2-  O2  1  0.07728000  0.38791600  0.25446000  1.0
  O2-  O2  1  0.07728000  0.58791600  0.25446000  1.0
  O2-  O2  1  0.07728000  0.78791600  0.25446000  1.0
  O2-  O2  1  0.07728000  0.98791600  0.25446000  1.0
  O2-  O2  1  0.42272000  0.15426400  0.24554000  1.0
  O2-  O2  1  0.42272000  0.35426400  0.24554000  1.0
  O2-  O2  1  0.42272000  0.55426400  0.24554000  1.0
  O2-  O2  1  0.42272000  0.75426400  0.24554000  1.0
  O2-  O2  1  0.42272000  0.95426400  0.24554000  1.0
  O2-  O2  1  0.56042000  0.08454400  0.24554000  1.0
  O2-  O2  1  0.56042000  0.28454400  0.24554000  1.0
  O2-  O2  1  0.56042000  0.48454400  0.24554000  1.0
  O2-  O2  1  0.56042000  0.68454400  0.24554000  1.0
  O2-  O2  1  0.56042000  0.88454400  0.24554000  1.0
  O2-  O2  1  0.77132000  0.11208400  0.24554000  1.0
  O2-  O2  1  0.77132000  0.31208400  0.24554000  1.0
  O2-  O2  1  0.77132000  0.51208400  0.24554000  1.0
  O2-  O2  1  0.77132000  0.71208400  0.24554000  1.0
  O2-  O2  1  0.77132000  0.91208400  0.24554000  1.0
  O2-  O2  1  0.27132000  0.18454400  0.74554000  1.0
  O2-  O2  1  0.27132000  0.38454400  0.74554000  1.0
  O2-  O2  1  0.27132000  0.58454400  0.74554000  1.0
  O2-  O2  1  0.27132000  0.78454400  0.74554000  1.0
  O2-  O2  1  0.27132000  0.98454400  0.74554000  1.0
  O2-  O2  1  0.06042000  0.05426400  0.74554000  1.0
  O2-  O2  1  0.06042000  0.25426400  0.74554000  1.0
  O2-  O2  1  0.06042000  0.45426400  0.74554000  1.0
  O2-  O2  1  0.06042000  0.65426400  0.74554000  1.0
  O2-  O2  1  0.06042000  0.85426400  0.74554000  1.0
  O2-  O2  1  0.92272000  0.01208400  0.74554000  1.0
  O2-  O2  1  0.92272000  0.21208400  0.74554000  1.0
  O2-  O2  1  0.92272000  0.41208400  0.74554000  1.0
  O2-  O2  1  0.92272000  0.61208400  0.74554000  1.0
  O2-  O2  1  0.92272000  0.81208400  0.74554000  1.0
