# generated using pymatgen
data_LiTi2(PO4)3
_symmetry_space_group_name_H-M   'P 1'
_cell_length_a   17.01949224
_cell_length_b   17.01949225
_cell_length_c   8.50974612
_cell_angle_alpha   60.00974856
_cell_angle_beta   119.99025144
_cell_angle_gamma   119.99025144
_symmetry_Int_Tables_number   1
_chemical_formula_structural   LiTi2(PO4)3
_chemical_formula_sum   'Li8 Ti16 P24 O96'
_cell_volume   1743.37485340
_cell_formula_units_Z   8
loop_
 _symmetry_equiv_pos_site_id
 _symmetry_equiv_pos_as_xyz
  1  'x, y, z'
loop_
 _atom_type_symbol
 _atom_type_oxidation_number
  Li+  1.0
  Ti4+  4.0
  P5+  5.0
  O2-  -2.0
loop_
 _atom_site_type_symbol
 _atom_site_label
 _atom_site_symmetry_multiplicity
 _atom_site_fract_x
 _atom_site_fract_y
 _atom_site_fract_z
 _atom_site_occupancy
  Li+  Li0  1  0.25000000  0.75000000  0.25000000  1.0
  Li+  Li1  1  0.75000000  0.75000000  0.25000000  1.0
  Li+  Li2  1  0.25000000  0.25000000  0.25000000  1.0
  Li+  Li3  1  0.75000000  0.25000000  0.25000000  1.0
  Li+  Li4  1  0.00041903  0.99708315  0.75290173  1.0
  Li+  Li5  1  0.49899069  0.99995547  0.75061335  1.0
  Li+  Li6  1  0.00000000  0.50000000  0.75000000  1.0
  Li+  Li7  1  0.49637495  0.49697512  0.75551487  1.0
  Ti4+  Ti8  1  0.17895000  0.82105000  0.39210000  1.0
  Ti4+  Ti9  1  0.67895000  0.82105000  0.39210000  1.0
  Ti4+  Ti10  1  0.17895000  0.32105000  0.39210000  1.0
  Ti4+  Ti11  1  0.67895000  0.32105000  0.39210000  1.0
  Ti4+  Ti12  1  0.43188820  0.57264214  0.89153883  1.0
  Ti4+  Ti13  1  0.92895000  0.57105000  0.89210000  1.0
  Ti4+  Ti14  1  0.42895000  0.07105000  0.89210000  1.0
  Ti4+  Ti15  1  0.92895000  0.07105000  0.89210000  1.0
  Ti4+  Ti16  1  0.32105000  0.67895000  0.10790000  1.0
  Ti4+  Ti17  1  0.82201311  0.67826050  0.10528880  1.0
  Ti4+  Ti18  1  0.32141044  0.17386061  0.10968377  1.0
  Ti4+  Ti19  1  0.82336769  0.17986074  0.10646087  1.0
  Ti4+  Ti20  1  0.07105000  0.92895000  0.60790000  1.0
  Ti4+  Ti21  1  0.57105000  0.92895000  0.60790000  1.0
  Ti4+  Ti22  1  0.07121063  0.42752484  0.60347384  1.0
  Ti4+  Ti23  1  0.56744076  0.42623014  0.60891584  1.0
  P5+  P24  1  0.27015000  0.87500000  0.79030000  1.0
  P5+  P25  1  0.77015000  0.87500000  0.79030000  1.0
  P5+  P26  1  0.27015000  0.37500000  0.79030000  1.0
  P5+  P27  1  0.77015000  0.37500000  0.79030000  1.0
  P5+  P28  1  0.47985000  0.72985000  0.50000000  1.0
  P5+  P29  1  0.97985000  0.72985000  0.50000000  1.0
  P5+  P30  1  0.47766148  0.23364160  0.50288616  1.0
  P5+  P31  1  0.97985000  0.22985000  0.50000000  1.0
  P5+  P32  1  0.12500000  0.52015000  0.20970000  1.0
  P5+  P33  1  0.62500000  0.52015000  0.20970000  1.0
  P5+  P34  1  0.12500000  0.02015000  0.20970000  1.0
  P5+  P35  1  0.62293468  0.02196889  0.21066463  1.0
  P5+  P36  1  0.02015000  0.77015000  0.00000000  1.0
  P5+  P37  1  0.52019383  0.76819549  0.00079091  1.0
  P5+  P38  1  0.02015000  0.27015000  0.00000000  1.0
  P5+  P39  1  0.52015000  0.27015000  0.00000000  1.0
  P5+  P40  1  0.37392979  0.97601377  0.28323869  1.0
  P5+  P41  1  0.87500000  0.97985000  0.29030000  1.0
  P5+  P42  1  0.37500000  0.47985000  0.29030000  1.0
  P5+  P43  1  0.87500000  0.47985000  0.29030000  1.0
  P5+  P44  1  0.22985000  0.62500000  0.70970000  1.0
  P5+  P45  1  0.72985000  0.62500000  0.70970000  1.0
  P5+  P46  1  0.22985000  0.12500000  0.70970000  1.0
  P5+  P47  1  0.72985000  0.12500000  0.70970000  1.0
  O2-  O48  1  0.24945000  0.84705000  0.62510000  1.0
  O2-  O49  1  0.74945000  0.84705000  0.62510000  1.0
  O2-  O50  1  0.24945000  0.34705000  0.62510000  1.0
  O2-  O51  1  0.74927617  0.34637423  0.62497570  1.0
  O2-  O52  1  0.06245000  0.75055000  0.44410000  1.0
  O2-  O53  1  0.56245000  0.75055000  0.44410000  1.0
  O2-  O54  1  0.06512278  0.24700292  0.44267109  1.0
  O2-  O55  1  0.56245000  0.25055000  0.44410000  1.0
  O2-  O56  1  0.15295000  0.93755000  0.25110000  1.0
  O2-  O57  1  0.65134870  0.93454254  0.25267124  1.0
  O2-  O58  1  0.15295000  0.43755000  0.25110000  1.0
  O2-  O59  1  0.65295000  0.43755000  0.25110000  1.0
  O2-  O60  1  0.49945000  0.68755000  0.94410000  1.0
  O2-  O61  1  0.99945000  0.68755000  0.94410000  1.0
  O2-  O62  1  0.50032417  0.18783023  0.94508596  1.0
  O2-  O63  1  0.99945000  0.18755000  0.94410000  1.0
  O2-  O64  1  0.40295000  0.50055000  0.12510000  1.0
  O2-  O65  1  0.90295000  0.50055000  0.12510000  1.0
  O2-  O66  1  0.40557663  0.99614814  0.12138656  1.0
  O2-  O67  1  0.90295000  0.00055000  0.12510000  1.0
  O2-  O68  1  0.31245000  0.59705000  0.75110000  1.0
  O2-  O69  1  0.81245000  0.59705000  0.75110000  1.0
  O2-  O70  1  0.31245000  0.09705000  0.75110000  1.0
  O2-  O71  1  0.81245000  0.09705000  0.75110000  1.0
  O2-  O72  1  0.25055000  0.65295000  0.87490000  1.0
  O2-  O73  1  0.75055000  0.65295000  0.87490000  1.0
  O2-  O74  1  0.25055000  0.15295000  0.87490000  1.0
  O2-  O75  1  0.75055000  0.15295000  0.87490000  1.0
  O2-  O76  1  0.43755000  0.74945000  0.05590000  1.0
  O2-  O77  1  0.93755000  0.74945000  0.05590000  1.0
  O2-  O78  1  0.43755000  0.24945000  0.05590000  1.0
  O2-  O79  1  0.93616762  0.25044783  0.05567705  1.0
  O2-  O80  1  0.34690697  0.56467729  0.25068414  1.0
  O2-  O81  1  0.84705000  0.56245000  0.24890000  1.0
  O2-  O82  1  0.34705000  0.06245000  0.24890000  1.0
  O2-  O83  1  0.84705000  0.06245000  0.24890000  1.0
  O2-  O84  1  0.99843228  0.80704408  0.55601612  1.0
  O2-  O85  1  0.50055000  0.81245000  0.55590000  1.0
  O2-  O86  1  0.00066078  0.31254512  0.55299045  1.0
  O2-  O87  1  0.50055000  0.31245000  0.55590000  1.0
  O2-  O88  1  0.09705000  0.99945000  0.37490000  1.0
  O2-  O89  1  0.59761198  0.99703586  0.37355585  1.0
  O2-  O90  1  0.09705000  0.49945000  0.37490000  1.0
  O2-  O91  1  0.59705000  0.49945000  0.37490000  1.0
  O2-  O92  1  0.18755000  0.90295000  0.74890000  1.0
  O2-  O93  1  0.68755000  0.90295000  0.74890000  1.0
  O2-  O94  1  0.18755000  0.40295000  0.74890000  1.0
  O2-  O95  1  0.68755000  0.40295000  0.74890000  1.0
  O2-  O96  1  0.22165000  0.70845000  0.51940000  1.0
  O2-  O97  1  0.72165000  0.70845000  0.51940000  1.0
  O2-  O98  1  0.22374238  0.21193313  0.51972850  1.0
  O2-  O99  1  0.72165000  0.20845000  0.51940000  1.0
  O2-  O100  1  0.11530000  0.77835000  0.16690000  1.0
  O2-  O101  1  0.61959911  0.77958629  0.16848809  1.0
  O2-  O102  1  0.11530000  0.27835000  0.16690000  1.0
  O2-  O103  1  0.61530000  0.27835000  0.16690000  1.0
  O2-  O104  1  0.29155000  0.88470000  0.30670000  1.0
  O2-  O105  1  0.79155000  0.88470000  0.30670000  1.0
  O2-  O106  1  0.29155000  0.38470000  0.30670000  1.0
  O2-  O107  1  0.79532296  0.38355641  0.30512100  1.0
  O2-  O108  1  0.47165000  0.63470000  0.66690000  1.0
  O2-  O109  1  0.97165000  0.63470000  0.66690000  1.0
  O2-  O110  1  0.47165000  0.13470000  0.66690000  1.0
  O2-  O111  1  0.97038180  0.13319480  0.66879848  1.0
  O2-  O112  1  0.04112302  0.52411560  0.01987716  1.0
  O2-  O113  1  0.54155000  0.52835000  0.01940000  1.0
  O2-  O114  1  0.04155000  0.02835000  0.01940000  1.0
  O2-  O115  1  0.54155000  0.02835000  0.01940000  1.0
  O2-  O116  1  0.36530000  0.95845000  0.80670000  1.0
  O2-  O117  1  0.86530000  0.95845000  0.80670000  1.0
  O2-  O118  1  0.36530000  0.45845000  0.80670000  1.0
  O2-  O119  1  0.86530000  0.45845000  0.80670000  1.0
  O2-  O120  1  0.27835000  0.79155000  0.98060000  1.0
  O2-  O121  1  0.77835000  0.79155000  0.98060000  1.0
  O2-  O122  1  0.27835000  0.29155000  0.98060000  1.0
  O2-  O123  1  0.77835000  0.29155000  0.98060000  1.0
  O2-  O124  1  0.38496865  0.72051176  0.33411753  1.0
  O2-  O125  1  0.88470000  0.72165000  0.33310000  1.0
  O2-  O126  1  0.38596797  0.21618410  0.33498646  1.0
  O2-  O127  1  0.88470000  0.22165000  0.33310000  1.0
  O2-  O128  1  0.20845000  0.61530000  0.19330000  1.0
  O2-  O129  1  0.70516627  0.61478221  0.19467511  1.0
  O2-  O130  1  0.20845000  0.11530000  0.19330000  1.0
  O2-  O131  1  0.70845000  0.11530000  0.19330000  1.0
  O2-  O132  1  0.02791003  0.86441244  0.83598240  1.0
  O2-  O133  1  0.52835000  0.86530000  0.83310000  1.0
  O2-  O134  1  0.03027349  0.36191140  0.83329200  1.0
  O2-  O135  1  0.53106007  0.36851504  0.83418387  1.0
  O2-  O136  1  0.45845000  0.97165000  0.48060000  1.0
  O2-  O137  1  0.95845000  0.97165000  0.48060000  1.0
  O2-  O138  1  0.45845000  0.47165000  0.48060000  1.0
  O2-  O139  1  0.95845000  0.47165000  0.48060000  1.0
  O2-  O140  1  0.13470000  0.54155000  0.69330000  1.0
  O2-  O141  1  0.63714255  0.54358455  0.69857220  1.0
  O2-  O142  1  0.13470000  0.04155000  0.69330000  1.0
  O2-  O143  1  0.63795067  0.04286799  0.69287947  1.0
