# generated using pymatgen
data_LiTi2(PO4)3
_symmetry_space_group_name_H-M   'P 1'
_cell_length_a   8.58674523
_cell_length_b   17.17349045
_cell_length_c   17.17349046
_cell_angle_alpha   119.99025144
_cell_angle_beta   119.99025144
_cell_angle_gamma   60.00974856
_symmetry_Int_Tables_number   1
_chemical_formula_structural   LiTi2(PO4)3
_chemical_formula_sum   'Li8 Ti16 P24 O96'
_cell_volume   1791.12831237
_cell_formula_units_Z   8
loop_
 _symmetry_equiv_pos_site_id
 _symmetry_equiv_pos_as_xyz
  1  'x, y, z'
loop_
 _atom_type_symbol
 _atom_type_oxidation_number
  Li+  1.0
  Ti4+  4.0
  P5+  5.0
  O2-  -2.0
loop_
 _atom_site_type_symbol
 _atom_site_label
 _atom_site_symmetry_multiplicity
 _atom_site_fract_x
 _atom_site_fract_y
 _atom_site_fract_z
 _atom_site_occupancy
  Li+  Li0  1  0.50000000  0.41666667  0.25000000  1.0
  Li+  Li1  1  0.50000000  0.91666667  0.25000000  1.0
  Li+  Li2  1  0.50000000  0.41666667  0.75000000  1.0
  Li+  Li3  1  0.50000000  0.91666667  0.75000000  1.0
  Li+  Li4  1  0.00000000  0.66666667  0.00000000  1.0
  Li+  Li5  1  0.00000000  0.16666667  0.00000000  1.0
  Li+  Li6  1  0.00000000  0.66666667  0.50000000  1.0
  Li+  Li7  1  0.00000000  0.16666667  0.50000000  1.0
  Ti4+  Ti8  1  0.64210000  0.48771667  0.17895000  1.0
  Ti4+  Ti9  1  0.64210000  0.98771667  0.17895000  1.0
  Ti4+  Ti10  1  0.64210000  0.48771667  0.67895000  1.0
  Ti4+  Ti11  1  0.64210000  0.98771667  0.67895000  1.0
  Ti4+  Ti12  1  0.14210000  0.23771667  0.42895000  1.0
  Ti4+  Ti13  1  0.14210000  0.73771667  0.42895000  1.0
  Ti4+  Ti14  1  0.14210000  0.23771667  0.92895000  1.0
  Ti4+  Ti15  1  0.14210000  0.73771667  0.92895000  1.0
  Ti4+  Ti16  1  0.35790000  0.34561667  0.32105000  1.0
  Ti4+  Ti17  1  0.35790000  0.84561667  0.32105000  1.0
  Ti4+  Ti18  1  0.35790000  0.34561667  0.82105000  1.0
  Ti4+  Ti19  1  0.35790000  0.84561667  0.82105000  1.0
  Ti4+  Ti20  1  0.85790000  0.59561667  0.07105000  1.0
  Ti4+  Ti21  1  0.85790000  0.09561667  0.07105000  1.0
  Ti4+  Ti22  1  0.85790000  0.59561667  0.57105000  1.0
  Ti4+  Ti23  1  0.85790000  0.09561667  0.57105000  1.0
  P5+  P24  1  0.04030000  0.39651667  0.12500000  1.0
  P5+  P25  1  0.04030000  0.89651667  0.12500000  1.0
  P5+  P26  1  0.04030000  0.39651667  0.62500000  1.0
  P5+  P27  1  0.04030000  0.89651667  0.62500000  1.0
  P5+  P28  1  0.75000000  0.18681667  0.27015000  1.0
  P5+  P29  1  0.75000000  0.68681667  0.27015000  1.0
  P5+  P30  1  0.75000000  0.18681667  0.77015000  1.0
  P5+  P31  1  0.75000000  0.68681667  0.77015000  1.0
  P5+  P32  1  0.45970000  0.54166667  0.47985000  1.0
  P5+  P33  1  0.45970000  0.04166667  0.47985000  1.0
  P5+  P34  1  0.45970000  0.54166667  0.97985000  1.0
  P5+  P35  1  0.45970000  0.04166667  0.97985000  1.0
  P5+  P36  1  0.25000000  0.64651667  0.22985000  1.0
  P5+  P37  1  0.25000000  0.14651667  0.22985000  1.0
  P5+  P38  1  0.25000000  0.64651667  0.72985000  1.0
  P5+  P39  1  0.25000000  0.14651667  0.72985000  1.0
  P5+  P40  1  0.54030000  0.29166667  0.02015000  1.0
  P5+  P41  1  0.54030000  0.79166667  0.02015000  1.0
  P5+  P42  1  0.54030000  0.29166667  0.52015000  1.0
  P5+  P43  1  0.54030000  0.79166667  0.52015000  1.0
  P5+  P44  1  0.95970000  0.43681667  0.37500000  1.0
  P5+  P45  1  0.95970000  0.93681667  0.37500000  1.0
  P5+  P46  1  0.95970000  0.43681667  0.87500000  1.0
  P5+  P47  1  0.95970000  0.93681667  0.87500000  1.0
  O2-  O48  1  0.87510000  0.41721667  0.15295000  1.0
  O2-  O49  1  0.87510000  0.91721667  0.15295000  1.0
  O2-  O50  1  0.87510000  0.41721667  0.65295000  1.0
  O2-  O51  1  0.87510000  0.91721667  0.65295000  1.0
  O2-  O52  1  0.69410000  0.60421667  0.24945000  1.0
  O2-  O53  1  0.69410000  0.10421667  0.24945000  1.0
  O2-  O54  1  0.69410000  0.60421667  0.74945000  1.0
  O2-  O55  1  0.69410000  0.10421667  0.74945000  1.0
  O2-  O56  1  0.50110000  0.51371667  0.06245000  1.0
  O2-  O57  1  0.50110000  0.01371667  0.06245000  1.0
  O2-  O58  1  0.50110000  0.51371667  0.56245000  1.0
  O2-  O59  1  0.50110000  0.01371667  0.56245000  1.0
  O2-  O60  1  0.19410000  0.16721667  0.31245000  1.0
  O2-  O61  1  0.19410000  0.66721667  0.31245000  1.0
  O2-  O62  1  0.19410000  0.16721667  0.81245000  1.0
  O2-  O63  1  0.19410000  0.66721667  0.81245000  1.0
  O2-  O64  1  0.37510000  0.26371667  0.49945000  1.0
  O2-  O65  1  0.37510000  0.76371667  0.49945000  1.0
  O2-  O66  1  0.37510000  0.26371667  0.99945000  1.0
  O2-  O67  1  0.37510000  0.76371667  0.99945000  1.0
  O2-  O68  1  0.00110000  0.35421667  0.40295000  1.0
  O2-  O69  1  0.00110000  0.85421667  0.40295000  1.0
  O2-  O70  1  0.00110000  0.35421667  0.90295000  1.0
  O2-  O71  1  0.00110000  0.85421667  0.90295000  1.0
  O2-  O72  1  0.12490000  0.41611667  0.34705000  1.0
  O2-  O73  1  0.12490000  0.91611667  0.34705000  1.0
  O2-  O74  1  0.12490000  0.41611667  0.84705000  1.0
  O2-  O75  1  0.12490000  0.91611667  0.84705000  1.0
  O2-  O76  1  0.30590000  0.22911667  0.25055000  1.0
  O2-  O77  1  0.30590000  0.72911667  0.25055000  1.0
  O2-  O78  1  0.30590000  0.22911667  0.75055000  1.0
  O2-  O79  1  0.30590000  0.72911667  0.75055000  1.0
  O2-  O80  1  0.49890000  0.31961667  0.43755000  1.0
  O2-  O81  1  0.49890000  0.81961667  0.43755000  1.0
  O2-  O82  1  0.49890000  0.31961667  0.93755000  1.0
  O2-  O83  1  0.49890000  0.81961667  0.93755000  1.0
  O2-  O84  1  0.80590000  0.66611667  0.18755000  1.0
  O2-  O85  1  0.80590000  0.16611667  0.18755000  1.0
  O2-  O86  1  0.80590000  0.66611667  0.68755000  1.0
  O2-  O87  1  0.80590000  0.16611667  0.68755000  1.0
  O2-  O88  1  0.62490000  0.56961667  0.00055000  1.0
  O2-  O89  1  0.62490000  0.06961667  0.00055000  1.0
  O2-  O90  1  0.62490000  0.56961667  0.50055000  1.0
  O2-  O91  1  0.62490000  0.06961667  0.50055000  1.0
  O2-  O92  1  0.99890000  0.47911667  0.09705000  1.0
  O2-  O93  1  0.99890000  0.97911667  0.09705000  1.0
  O2-  O94  1  0.99890000  0.47911667  0.59705000  1.0
  O2-  O95  1  0.99890000  0.97911667  0.59705000  1.0
  O2-  O96  1  0.76940000  0.44501667  0.29155000  1.0
  O2-  O97  1  0.76940000  0.94501667  0.29155000  1.0
  O2-  O98  1  0.76940000  0.44501667  0.79155000  1.0
  O2-  O99  1  0.76940000  0.94501667  0.79155000  1.0
  O2-  O100  1  0.41690000  0.55136667  0.22165000  1.0
  O2-  O101  1  0.41690000  0.05136667  0.22165000  1.0
  O2-  O102  1  0.41690000  0.55136667  0.72165000  1.0
  O2-  O103  1  0.41690000  0.05136667  0.72165000  1.0
  O2-  O104  1  0.55670000  0.37511667  0.11530000  1.0
  O2-  O105  1  0.55670000  0.87511667  0.11530000  1.0
  O2-  O106  1  0.55670000  0.37511667  0.61530000  1.0
  O2-  O107  1  0.55670000  0.87511667  0.61530000  1.0
  O2-  O108  1  0.91690000  0.19501667  0.36530000  1.0
  O2-  O109  1  0.91690000  0.69501667  0.36530000  1.0
  O2-  O110  1  0.91690000  0.19501667  0.86530000  1.0
  O2-  O111  1  0.91690000  0.69501667  0.86530000  1.0
  O2-  O112  1  0.26940000  0.62511667  0.47165000  1.0
  O2-  O113  1  0.26940000  0.12511667  0.47165000  1.0
  O2-  O114  1  0.26940000  0.62511667  0.97165000  1.0
  O2-  O115  1  0.26940000  0.12511667  0.97165000  1.0
  O2-  O116  1  0.05670000  0.30136667  0.04155000  1.0
  O2-  O117  1  0.05670000  0.80136667  0.04155000  1.0
  O2-  O118  1  0.05670000  0.30136667  0.54155000  1.0
  O2-  O119  1  0.05670000  0.80136667  0.54155000  1.0
  O2-  O120  1  0.23060000  0.38831667  0.20845000  1.0
  O2-  O121  1  0.23060000  0.88831667  0.20845000  1.0
  O2-  O122  1  0.23060000  0.38831667  0.70845000  1.0
  O2-  O123  1  0.23060000  0.88831667  0.70845000  1.0
  O2-  O124  1  0.58310000  0.28196667  0.27835000  1.0
  O2-  O125  1  0.58310000  0.78196667  0.27835000  1.0
  O2-  O126  1  0.58310000  0.28196667  0.77835000  1.0
  O2-  O127  1  0.58310000  0.78196667  0.77835000  1.0
  O2-  O128  1  0.44330000  0.45821667  0.38470000  1.0
  O2-  O129  1  0.44330000  0.95821667  0.38470000  1.0
  O2-  O130  1  0.44330000  0.45821667  0.88470000  1.0
  O2-  O131  1  0.44330000  0.95821667  0.88470000  1.0
  O2-  O132  1  0.08310000  0.63831667  0.13470000  1.0
  O2-  O133  1  0.08310000  0.13831667  0.13470000  1.0
  O2-  O134  1  0.08310000  0.63831667  0.63470000  1.0
  O2-  O135  1  0.08310000  0.13831667  0.63470000  1.0
  O2-  O136  1  0.73060000  0.20821667  0.02835000  1.0
  O2-  O137  1  0.73060000  0.70821667  0.02835000  1.0
  O2-  O138  1  0.73060000  0.20821667  0.52835000  1.0
  O2-  O139  1  0.73060000  0.70821667  0.52835000  1.0
  O2-  O140  1  0.94330000  0.53196667  0.45845000  1.0
  O2-  O141  1  0.94330000  0.03196667  0.45845000  1.0
  O2-  O142  1  0.94330000  0.53196667  0.95845000  1.0
  O2-  O143  1  0.94330000  0.03196667  0.95845000  1.0
