# generated using pymatgen
data_LiTi2(PO4)3
_symmetry_space_group_name_H-M   'P 1'
_cell_length_a   17.01949224
_cell_length_b   8.50974612
_cell_length_c   17.01949225
_cell_angle_alpha   60.00974856
_cell_angle_beta   60.00974856
_cell_angle_gamma   60.00974856
_symmetry_Int_Tables_number   1
_chemical_formula_structural   LiTi2(PO4)3
_chemical_formula_sum   'Li8 Ti16 P24 O96'
_cell_volume   1743.37485340
_cell_formula_units_Z   8
loop_
 _symmetry_equiv_pos_site_id
 _symmetry_equiv_pos_as_xyz
  1  'x, y, z'
loop_
 _atom_type_symbol
 _atom_type_oxidation_number
  Li+  1.0
  Ti4+  4.0
  P5+  5.0
  O2-  -2.0
loop_
 _atom_site_type_symbol
 _atom_site_label
 _atom_site_symmetry_multiplicity
 _atom_site_fract_x
 _atom_site_fract_y
 _atom_site_fract_z
 _atom_site_occupancy
  Li+  Li1  1  0.25000000  0.50000000  0.25000000  1.0
  Li+  Li1  1  0.75000000  0.50000000  0.25000000  1.0
  Li+  Li1  1  0.25000000  0.50000000  0.75000000  1.0
  Li+  Li1  1  0.75000000  0.50000000  0.75000000  1.0
  Li+  Li1  1  0.00000000  0.00000000  0.00000000  1.0
  Li+  Li1  1  0.50000000  0.00000000  1.00000000  1.0
  Li+  Li1  1  0.00000000  0.00000000  0.50000000  1.0
  Li+  Li1  1  0.50000000  0.00000000  0.50000000  1.0
  Ti4+  Ti1  1  0.17895000  0.35790000  0.17895000  1.0
  Ti4+  Ti1  1  0.67895000  0.35790000  0.17895000  1.0
  Ti4+  Ti1  1  0.17895000  0.35790000  0.67895000  1.0
  Ti4+  Ti1  1  0.67895000  0.35790000  0.67895000  1.0
  Ti4+  Ti1  1  0.42895000  0.85790000  0.42895000  1.0
  Ti4+  Ti1  1  0.92895000  0.85790000  0.42895000  1.0
  Ti4+  Ti1  1  0.42895000  0.85790000  0.92895000  1.0
  Ti4+  Ti1  1  0.92895000  0.85790000  0.92895000  1.0
  Ti4+  Ti1  1  0.32105000  0.64210000  0.32105000  1.0
  Ti4+  Ti1  1  0.82105000  0.64210000  0.32105000  1.0
  Ti4+  Ti1  1  0.32105000  0.64210000  0.82105000  1.0
  Ti4+  Ti1  1  0.82105000  0.64210000  0.82105000  1.0
  Ti4+  Ti1  1  0.07105000  0.14210000  0.07105000  1.0
  Ti4+  Ti1  1  0.57105000  0.14210000  0.07105000  1.0
  Ti4+  Ti1  1  0.07105000  0.14210000  0.57105000  1.0
  Ti4+  Ti1  1  0.57105000  0.14210000  0.57105000  1.0
  P5+  P1  1  0.27015000  0.95970000  0.12500000  1.0
  P5+  P1  1  0.77015000  0.95970000  0.12500000  1.0
  P5+  P1  1  0.27015000  0.95970000  0.62500000  1.0
  P5+  P1  1  0.77015000  0.95970000  0.62500000  1.0
  P5+  P1  1  0.47985000  0.25000000  0.27015000  1.0
  P5+  P1  1  0.97985000  0.25000000  0.27015000  1.0
  P5+  P1  1  0.47985000  0.25000000  0.77015000  1.0
  P5+  P1  1  0.97985000  0.25000000  0.77015000  1.0
  P5+  P1  1  0.12500000  0.54030000  0.47985000  1.0
  P5+  P1  1  0.62500000  0.54030000  0.47985000  1.0
  P5+  P1  1  0.12500000  0.54030000  0.97985000  1.0
  P5+  P1  1  0.62500000  0.54030000  0.97985000  1.0
  P5+  P1  1  0.02015000  0.75000000  0.22985000  1.0
  P5+  P1  1  0.52015000  0.75000000  0.22985000  1.0
  P5+  P1  1  0.02015000  0.75000000  0.72985000  1.0
  P5+  P1  1  0.52015000  0.75000000  0.72985000  1.0
  P5+  P1  1  0.37500000  0.45970000  0.02015000  1.0
  P5+  P1  1  0.87500000  0.45970000  0.02015000  1.0
  P5+  P1  1  0.37500000  0.45970000  0.52015000  1.0
  P5+  P1  1  0.87500000  0.45970000  0.52015000  1.0
  P5+  P1  1  0.22985000  0.04030000  0.37500000  1.0
  P5+  P1  1  0.72985000  0.04030000  0.37500000  1.0
  P5+  P1  1  0.22985000  0.04030000  0.87500000  1.0
  P5+  P1  1  0.72985000  0.04030000  0.87500000  1.0
  O2-  O1  1  0.24945000  0.12490000  0.15295000  1.0
  O2-  O1  1  0.74945000  0.12490000  0.15295000  1.0
  O2-  O1  1  0.24945000  0.12490000  0.65295000  1.0
  O2-  O1  1  0.74945000  0.12490000  0.65295000  1.0
  O2-  O1  1  0.06245000  0.30590000  0.24945000  1.0
  O2-  O1  1  0.56245000  0.30590000  0.24945000  1.0
  O2-  O1  1  0.06245000  0.30590000  0.74945000  1.0
  O2-  O1  1  0.56245000  0.30590000  0.74945000  1.0
  O2-  O1  1  0.15295000  0.49890000  0.06245000  1.0
  O2-  O1  1  0.65295000  0.49890000  0.06245000  1.0
  O2-  O1  1  0.15295000  0.49890000  0.56245000  1.0
  O2-  O1  1  0.65295000  0.49890000  0.56245000  1.0
  O2-  O1  1  0.49945000  0.80590000  0.31245000  1.0
  O2-  O1  1  0.99945000  0.80590000  0.31245000  1.0
  O2-  O1  1  0.49945000  0.80590000  0.81245000  1.0
  O2-  O1  1  0.99945000  0.80590000  0.81245000  1.0
  O2-  O1  1  0.40295000  0.62490000  0.49945000  1.0
  O2-  O1  1  0.90295000  0.62490000  0.49945000  1.0
  O2-  O1  1  0.40295000  0.62490000  0.99945000  1.0
  O2-  O1  1  0.90295000  0.62490000  0.99945000  1.0
  O2-  O1  1  0.31245000  0.99890000  0.40295000  1.0
  O2-  O1  1  0.81245000  0.99890000  0.40295000  1.0
  O2-  O1  1  0.31245000  0.99890000  0.90295000  1.0
  O2-  O1  1  0.81245000  0.99890000  0.90295000  1.0
  O2-  O1  1  0.25055000  0.87510000  0.34705000  1.0
  O2-  O1  1  0.75055000  0.87510000  0.34705000  1.0
  O2-  O1  1  0.25055000  0.87510000  0.84705000  1.0
  O2-  O1  1  0.75055000  0.87510000  0.84705000  1.0
  O2-  O1  1  0.43755000  0.69410000  0.25055000  1.0
  O2-  O1  1  0.93755000  0.69410000  0.25055000  1.0
  O2-  O1  1  0.43755000  0.69410000  0.75055000  1.0
  O2-  O1  1  0.93755000  0.69410000  0.75055000  1.0
  O2-  O1  1  0.34705000  0.50110000  0.43755000  1.0
  O2-  O1  1  0.84705000  0.50110000  0.43755000  1.0
  O2-  O1  1  0.34705000  0.50110000  0.93755000  1.0
  O2-  O1  1  0.84705000  0.50110000  0.93755000  1.0
  O2-  O1  1  0.00055000  0.19410000  0.18755000  1.0
  O2-  O1  1  0.50055000  0.19410000  0.18755000  1.0
  O2-  O1  1  0.00055000  0.19410000  0.68755000  1.0
  O2-  O1  1  0.50055000  0.19410000  0.68755000  1.0
  O2-  O1  1  0.09705000  0.37510000  0.00055000  1.0
  O2-  O1  1  0.59705000  0.37510000  0.00055000  1.0
  O2-  O1  1  0.09705000  0.37510000  0.50055000  1.0
  O2-  O1  1  0.59705000  0.37510000  0.50055000  1.0
  O2-  O1  1  0.18755000  0.00110000  0.09705000  1.0
  O2-  O1  1  0.68755000  0.00110000  0.09705000  1.0
  O2-  O1  1  0.18755000  0.00110000  0.59705000  1.0
  O2-  O1  1  0.68755000  0.00110000  0.59705000  1.0
  O2-  O2  1  0.22165000  0.23060000  0.29155000  1.0
  O2-  O2  1  0.72165000  0.23060000  0.29155000  1.0
  O2-  O2  1  0.22165000  0.23060000  0.79155000  1.0
  O2-  O2  1  0.72165000  0.23060000  0.79155000  1.0
  O2-  O2  1  0.11530000  0.58310000  0.22165000  1.0
  O2-  O2  1  0.61530000  0.58310000  0.22165000  1.0
  O2-  O2  1  0.11530000  0.58310000  0.72165000  1.0
  O2-  O2  1  0.61530000  0.58310000  0.72165000  1.0
  O2-  O2  1  0.29155000  0.44330000  0.11530000  1.0
  O2-  O2  1  0.79155000  0.44330000  0.11530000  1.0
  O2-  O2  1  0.29155000  0.44330000  0.61530000  1.0
  O2-  O2  1  0.79155000  0.44330000  0.61530000  1.0
  O2-  O2  1  0.47165000  0.08310000  0.36530000  1.0
  O2-  O2  1  0.97165000  0.08310000  0.36530000  1.0
  O2-  O2  1  0.47165000  0.08310000  0.86530000  1.0
  O2-  O2  1  0.97165000  0.08310000  0.86530000  1.0
  O2-  O2  1  0.04155000  0.73060000  0.47165000  1.0
  O2-  O2  1  0.54155000  0.73060000  0.47165000  1.0
  O2-  O2  1  0.04155000  0.73060000  0.97165000  1.0
  O2-  O2  1  0.54155000  0.73060000  0.97165000  1.0
  O2-  O2  1  0.36530000  0.94330000  0.04155000  1.0
  O2-  O2  1  0.86530000  0.94330000  0.04155000  1.0
  O2-  O2  1  0.36530000  0.94330000  0.54155000  1.0
  O2-  O2  1  0.86530000  0.94330000  0.54155000  1.0
  O2-  O2  1  0.27835000  0.76940000  0.20845000  1.0
  O2-  O2  1  0.77835000  0.76940000  0.20845000  1.0
  O2-  O2  1  0.27835000  0.76940000  0.70845000  1.0
  O2-  O2  1  0.77835000  0.76940000  0.70845000  1.0
  O2-  O2  1  0.38470000  0.41690000  0.27835000  1.0
  O2-  O2  1  0.88470000  0.41690000  0.27835000  1.0
  O2-  O2  1  0.38470000  0.41690000  0.77835000  1.0
  O2-  O2  1  0.88470000  0.41690000  0.77835000  1.0
  O2-  O2  1  0.20845000  0.55670000  0.38470000  1.0
  O2-  O2  1  0.70845000  0.55670000  0.38470000  1.0
  O2-  O2  1  0.20845000  0.55670000  0.88470000  1.0
  O2-  O2  1  0.70845000  0.55670000  0.88470000  1.0
  O2-  O2  1  0.02835000  0.91690000  0.13470000  1.0
  O2-  O2  1  0.52835000  0.91690000  0.13470000  1.0
  O2-  O2  1  0.02835000  0.91690000  0.63470000  1.0
  O2-  O2  1  0.52835000  0.91690000  0.63470000  1.0
  O2-  O2  1  0.45845000  0.26940000  0.02835000  1.0
  O2-  O2  1  0.95845000  0.26940000  0.02835000  1.0
  O2-  O2  1  0.45845000  0.26940000  0.52835000  1.0
  O2-  O2  1  0.95845000  0.26940000  0.52835000  1.0
  O2-  O2  1  0.13470000  0.05670000  0.45845000  1.0
  O2-  O2  1  0.63470000  0.05670000  0.45845000  1.0
  O2-  O2  1  0.13470000  0.05670000  0.95845000  1.0
  O2-  O2  1  0.63470000  0.05670000  0.95845000  1.0
