# generated using pymatgen
data_LiAlSiO4
_symmetry_space_group_name_H-M   'P 1'
_cell_length_a   21.04486000
_cell_length_b   11.10770000
_cell_length_c   10.52243000
_cell_angle_alpha   90.00000000
_cell_angle_beta   60.00000000
_cell_angle_gamma   90.00000000
_symmetry_Int_Tables_number   1
_chemical_formula_structural   LiAlSiO4
_chemical_formula_sum   'Li24 Al24 Si24 O96'
_cell_volume   2130.18273118
_cell_formula_units_Z   24
loop_
 _symmetry_equiv_pos_site_id
 _symmetry_equiv_pos_as_xyz
  1  'x, y, z'
loop_
 _atom_type_symbol
 _atom_type_oxidation_number
  Li+  1.0
  Al3+  3.0
  Si4+  4.0
  O2-  -2.0
loop_
 _atom_site_type_symbol
 _atom_site_label
 _atom_site_symmetry_multiplicity
 _atom_site_fract_x
 _atom_site_fract_y
 _atom_site_fract_z
 _atom_site_occupancy
  Li+  Li0  1  0.01075000  0.13926667  0.73800000  1.0
  Li+  Li1  1  0.51075000  0.13926667  0.73800000  1.0
  Li+  Li2  1  0.00600000  0.86073333  0.72850000  1.0
  Li+  Li3  1  0.50600000  0.86073333  0.72850000  1.0
  Li+  Li4  1  0.01347250  0.52657939  0.74083727  1.0
  Li+  Li5  1  0.51075000  0.52740000  0.74050000  1.0
  Li+  Li6  1  0.26240000  0.82160000  0.22910000  1.0
  Li+  Li7  1  0.76240000  0.82160000  0.22910000  1.0
  Li+  Li8  1  0.49661644  0.15521960  0.27597354  1.0
  Li+  Li9  1  0.99659637  0.15605866  0.27536023  1.0
  Li+  Li10  1  0.23860449  0.17963265  0.27287561  1.0
  Li+  Li11  1  0.73955000  0.17840000  0.27480000  1.0
  Li+  Li12  1  0.25950000  0.35886667  0.74320000  1.0
  Li+  Li13  1  0.75950000  0.35886667  0.74320000  1.0
  Li+  Li14  1  0.24050000  0.35886667  0.75680000  1.0
  Li+  Li15  1  0.73919889  0.35601495  0.75895070  1.0
  Li+  Li16  1  0.00506693  0.02449133  0.26212191  1.0
  Li+  Li17  1  0.50146695  0.02226173  0.25916603  1.0
  Li+  Li18  1  0.25610000  0.97446667  0.75680000  1.0
  Li+  Li19  1  0.75610000  0.97446667  0.75680000  1.0
  Li+  Li20  1  0.24050000  0.30780000  0.26220000  1.0
  Li+  Li21  1  0.74050000  0.30780000  0.26220000  1.0
  Li+  Li22  1  0.49660000  0.64113333  0.26900000  1.0
  Li+  Li23  1  0.99660000  0.64113333  0.26900000  1.0
  Al3+  Al24  1  0.37500000  0.00000000  0.00000000  1.0
  Al3+  Al25  1  0.87500000  0.00000000  0.00000000  1.0
  Al3+  Al26  1  0.00000000  0.33333333  0.50000000  1.0
  Al3+  Al27  1  0.50000000  0.33333333  0.50000000  1.0
  Al3+  Al28  1  0.37485000  0.16666667  0.25060000  1.0
  Al3+  Al29  1  0.87485000  0.16666667  0.25060000  1.0
  Al3+  Al30  1  0.25030000  0.83333333  0.49970000  1.0
  Al3+  Al31  1  0.75030000  0.83333333  0.49970000  1.0
  Al3+  Al32  1  0.12515000  0.50000000  0.00030000  1.0
  Al3+  Al33  1  0.62515000  0.50000000  0.00030000  1.0
  Al3+  Al34  1  0.24970000  0.83333333  0.00030000  1.0
  Al3+  Al35  1  0.74970000  0.83333333  0.00030000  1.0
  Al3+  Al36  1  0.12640000  0.50000000  0.49720000  1.0
  Al3+  Al37  1  0.62640000  0.50000000  0.49720000  1.0
  Al3+  Al38  1  0.37590000  0.16666667  0.24640000  1.0
  Al3+  Al39  1  0.87851558  0.16469875  0.24516513  1.0
  Al3+  Al40  1  0.37723319  0.50282261  0.50052074  1.0
  Al3+  Al41  1  0.87590000  0.50000000  0.50180000  1.0
  Al3+  Al42  1  0.24820000  0.83333333  0.50180000  1.0
  Al3+  Al43  1  0.74769819  0.83307192  0.50184240  1.0
  Al3+  Al44  1  0.12410000  0.16666667  0.25360000  1.0
  Al3+  Al45  1  0.62410000  0.16666667  0.25360000  1.0
  Al3+  Al46  1  0.12410000  0.50000000  0.99820000  1.0
  Al3+  Al47  1  0.62410000  0.50000000  0.99820000  1.0
  Si4+  Si48  1  0.37500000  0.66666667  0.75000000  1.0
  Si4+  Si49  1  0.87500000  0.66666667  0.75000000  1.0
  Si4+  Si50  1  0.12500000  0.00000000  0.50000000  1.0
  Si4+  Si51  1  0.62500000  0.00000000  0.50000000  1.0
  Si4+  Si52  1  0.00000000  0.33333333  0.00000000  1.0
  Si4+  Si53  1  0.50000000  0.33333333  0.00000000  1.0
  Si4+  Si54  1  0.12500000  0.66666667  0.75000000  1.0
  Si4+  Si55  1  0.62500000  0.66666667  0.75000000  1.0
  Si4+  Si56  1  0.37485000  0.50000000  0.49970000  1.0
  Si4+  Si57  1  0.87485000  0.50000000  0.49970000  1.0
  Si4+  Si58  1  0.12515000  0.16666667  0.24940000  1.0
  Si4+  Si59  1  0.62515000  0.16666667  0.24940000  1.0
  Si4+  Si60  1  0.37360000  0.16666667  0.75000000  1.0
  Si4+  Si61  1  0.87360000  0.16666667  0.75000000  1.0
  Si4+  Si62  1  0.00000000  0.83333333  0.00280000  1.0
  Si4+  Si63  1  0.50000000  0.83333333  0.00280000  1.0
  Si4+  Si64  1  0.12640000  0.16666667  0.75000000  1.0
  Si4+  Si65  1  0.62640000  0.16666667  0.75000000  1.0
  Si4+  Si66  1  0.37197258  0.50071846  0.00563331  1.0
  Si4+  Si67  1  0.87498904  0.49914120  0.00217383  1.0
  Si4+  Si68  1  0.00000000  0.83333333  0.49720000  1.0
  Si4+  Si69  1  0.50142791  0.83739268  0.49837159  1.0
  Si4+  Si70  1  0.25127604  0.83241234  0.99793688  1.0
  Si4+  Si71  1  0.75180000  0.83333333  0.99820000  1.0
  O2-  O72  1  0.44925000  0.42676667  0.95180000  1.0
  O2-  O73  1  0.94925000  0.42676667  0.95180000  1.0
  O2-  O74  1  0.44985000  0.76010000  0.64850000  1.0
  O2-  O75  1  0.94985000  0.76010000  0.64850000  1.0
  O2-  O76  1  0.09691033  0.09252451  0.65276230  1.0
  O2-  O77  1  0.60090000  0.09343333  0.64970000  1.0
  O2-  O78  1  0.05075000  0.42676667  0.54820000  1.0
  O2-  O79  1  0.54966935  0.42874146  0.54927804  1.0
  O2-  O80  1  0.05015000  0.76010000  0.85150000  1.0
  O2-  O81  1  0.55015000  0.76010000  0.85150000  1.0
  O2-  O82  1  0.39910000  0.09343333  0.85030000  1.0
  O2-  O83  1  0.89910000  0.09343333  0.85030000  1.0
  O2-  O84  1  0.05184732  0.91186903  0.54844140  1.0
  O2-  O85  1  0.55200648  0.90703247  0.55002276  1.0
  O2-  O86  1  0.39910000  0.57323333  0.85150000  1.0
  O2-  O87  1  0.89336044  0.57283637  0.85013166  1.0
  O2-  O88  1  0.05075000  0.23990000  0.85030000  1.0
  O2-  O89  1  0.55075000  0.23990000  0.85030000  1.0
  O2-  O90  1  0.44985000  0.90656667  0.95180000  1.0
  O2-  O91  1  0.94761493  0.90436704  0.95333584  1.0
  O2-  O92  1  0.10090000  0.57323333  0.64850000  1.0
  O2-  O93  1  0.59812096  0.57101136  0.64290808  1.0
  O2-  O94  1  0.44911434  0.23793757  0.64201362  1.0
  O2-  O95  1  0.94925000  0.23990000  0.64970000  1.0
  O2-  O96  1  0.45415000  0.40186667  0.45110000  1.0
  O2-  O97  1  0.95415000  0.40186667  0.45110000  1.0
  O2-  O98  1  0.19530000  0.73520000  0.65830000  1.0
  O2-  O99  1  0.69530000  0.73520000  0.65830000  1.0
  O2-  O100  1  0.34768052  0.06873408  0.13867924  1.0
  O2-  O101  1  0.85055000  0.06853333  0.14060000  1.0
  O2-  O102  1  0.04585000  0.40186667  0.04890000  1.0
  O2-  O103  1  0.54585000  0.40186667  0.04890000  1.0
  O2-  O104  1  0.30470000  0.73520000  0.84170000  1.0
  O2-  O105  1  0.80470000  0.73520000  0.84170000  1.0
  O2-  O106  1  0.14945000  0.06853333  0.35940000  1.0
  O2-  O107  1  0.64945000  0.06853333  0.35940000  1.0
  O2-  O108  1  0.30470000  0.93146667  0.04890000  1.0
  O2-  O109  1  0.80470000  0.93146667  0.04890000  1.0
  O2-  O110  1  0.14945000  0.59813333  0.84170000  1.0
  O2-  O111  1  0.64945000  0.59813333  0.84170000  1.0
  O2-  O112  1  0.04585000  0.26480000  0.35940000  1.0
  O2-  O113  1  0.54585000  0.26480000  0.35940000  1.0
  O2-  O114  1  0.19530000  0.93146667  0.45110000  1.0
  O2-  O115  1  0.69682941  0.93224188  0.45220252  1.0
  O2-  O116  1  0.34858000  0.60004859  0.65948640  1.0
  O2-  O117  1  0.84778924  0.59965974  0.65671248  1.0
  O2-  O118  1  0.45415000  0.26480000  0.14060000  1.0
  O2-  O119  1  0.95339948  0.26979976  0.14064224  1.0
  O2-  O120  1  0.20130000  0.40406667  0.44860000  1.0
  O2-  O121  1  0.70130000  0.40406667  0.44860000  1.0
  O2-  O122  1  0.44965632  0.73351520  0.15133040  1.0
  O2-  O123  1  0.94940000  0.73740000  0.15260000  1.0
  O2-  O124  1  0.34930000  0.07073333  0.64880000  1.0
  O2-  O125  1  0.84930000  0.07073333  0.64880000  1.0
  O2-  O126  1  0.29870000  0.40406667  0.05140000  1.0
  O2-  O127  1  0.79672548  0.40195344  0.05308967  1.0
  O2-  O128  1  0.05060000  0.73740000  0.34740000  1.0
  O2-  O129  1  0.55499251  0.73484983  0.34775701  1.0
  O2-  O130  1  0.14621525  0.07238354  0.84965051  1.0
  O2-  O131  1  0.65070000  0.07073333  0.85120000  1.0
  O2-  O132  1  0.05060000  0.92926667  0.05140000  1.0
  O2-  O133  1  0.55075757  0.92708364  0.05932477  1.0
  O2-  O134  1  0.15070000  0.59593333  0.34740000  1.0
  O2-  O135  1  0.65217532  0.59488803  0.35212187  1.0
  O2-  O136  1  0.29870000  0.26260000  0.85120000  1.0
  O2-  O137  1  0.79882122  0.26328512  0.84929010  1.0
  O2-  O138  1  0.44617557  0.92965532  0.44970243  1.0
  O2-  O139  1  0.95199748  0.92806776  0.44563009  1.0
  O2-  O140  1  0.34930000  0.59593333  0.15260000  1.0
  O2-  O141  1  0.84930000  0.59593333  0.15260000  1.0
  O2-  O142  1  0.20130000  0.26260000  0.64880000  1.0
  O2-  O143  1  0.70130000  0.26260000  0.64880000  1.0
  O2-  O144  1  0.20030000  0.41266667  0.95390000  1.0
  O2-  O145  1  0.70030000  0.41266667  0.95390000  1.0
  O2-  O146  1  0.19775000  0.74600000  0.15060000  1.0
  O2-  O147  1  0.69775000  0.74600000  0.15060000  1.0
  O2-  O148  1  0.10195000  0.07933333  0.14550000  1.0
  O2-  O149  1  0.60195000  0.07933333  0.14550000  1.0
  O2-  O150  1  0.30286845  0.40922737  0.54531938  1.0
  O2-  O151  1  0.79970000  0.41266667  0.54610000  1.0
  O2-  O152  1  0.30464606  0.74531613  0.34757107  1.0
  O2-  O153  1  0.80225000  0.74600000  0.34940000  1.0
  O2-  O154  1  0.39805000  0.07933333  0.35450000  1.0
  O2-  O155  1  0.89805000  0.07933333  0.35450000  1.0
  O2-  O156  1  0.30184995  0.92267763  0.54540470  1.0
  O2-  O157  1  0.80225000  0.92066667  0.54610000  1.0
  O2-  O158  1  0.39830336  0.58379182  0.34884832  1.0
  O2-  O159  1  0.89805000  0.58733333  0.34940000  1.0
  O2-  O160  1  0.30399296  0.25303413  0.35563819  1.0
  O2-  O161  1  0.79970000  0.25400000  0.35450000  1.0
  O2-  O162  1  0.19775000  0.92066667  0.95390000  1.0
  O2-  O163  1  0.69775000  0.92066667  0.95390000  1.0
  O2-  O164  1  0.10195000  0.58733333  0.15060000  1.0
  O2-  O165  1  0.60195000  0.58733333  0.15060000  1.0
  O2-  O166  1  0.20030000  0.25400000  0.14550000  1.0
  O2-  O167  1  0.69580182  0.25496487  0.14759870  1.0
