# generated using pymatgen
data_LiAlSiO4
_symmetry_space_group_name_H-M   'P 1'
_cell_length_a   10.43077436
_cell_length_b   20.86154871
_cell_length_c   11.01094636
_cell_angle_alpha   90.00000000
_cell_angle_beta   90.00000000
_cell_angle_gamma   120.00000000
_symmetry_Int_Tables_number   1
_chemical_formula_structural   LiAlSiO4
_chemical_formula_sum   'Li24 Al24 Si24 O96'
_cell_volume   2075.00131220
_cell_formula_units_Z   24
loop_
 _symmetry_equiv_pos_site_id
 _symmetry_equiv_pos_as_xyz
  1  'x, y, z'
loop_
 _atom_type_symbol
 _atom_type_oxidation_number
  Li+  1.0
  Al3+  3.0
  Si4+  4.0
  O2-  -2.0
loop_
 _atom_site_type_symbol
 _atom_site_label
 _atom_site_symmetry_multiplicity
 _atom_site_fract_x
 _atom_site_fract_y
 _atom_site_fract_z
 _atom_site_occupancy
  Li+  Li0  1  0.98800000  0.65591667  0.86073333  1.0
  Li+  Li1  1  0.98800000  0.15591667  0.86073333  1.0
  Li+  Li2  1  0.97850000  0.66066667  0.13926667  1.0
  Li+  Li3  1  0.97850000  0.16066667  0.13926667  1.0
  Li+  Li4  1  0.99050000  0.65591667  0.47260000  1.0
  Li+  Li5  1  0.99050000  0.15591667  0.47260000  1.0
  Li+  Li6  1  0.47910000  0.40426667  0.17840000  1.0
  Li+  Li7  1  0.47910000  0.90426667  0.17840000  1.0
  Li+  Li8  1  0.52480000  0.16861667  0.84506667  1.0
  Li+  Li9  1  0.52480000  0.66861667  0.84506667  1.0
  Li+  Li10  1  0.52480000  0.42711667  0.82160000  1.0
  Li+  Li11  1  0.52480000  0.92711667  0.82160000  1.0
  Li+  Li12  1  0.99320000  0.40716667  0.64113333  1.0
  Li+  Li13  1  0.99320000  0.90716667  0.64113333  1.0
  Li+  Li14  1  0.00680000  0.42616667  0.64113333  1.0
  Li+  Li15  1  0.00680000  0.92616667  0.64113333  1.0
  Li+  Li16  1  0.51220000  0.66326667  0.97446667  1.0
  Li+  Li17  1  0.51220000  0.16326667  0.97446667  1.0
  Li+  Li18  1  0.00680000  0.41056667  0.02553333  1.0
  Li+  Li19  1  0.00680000  0.91056667  0.02553333  1.0
  Li+  Li20  1  0.51220000  0.42616667  0.69220000  1.0
  Li+  Li21  1  0.51220000  0.92616667  0.69220000  1.0
  Li+  Li22  1  0.51900000  0.17006667  0.35886667  1.0
  Li+  Li23  1  0.51900000  0.67006667  0.35886667  1.0
  Al3+  Al24  1  0.25000000  0.29166667  0.00000000  1.0
  Al3+  Al25  1  0.25000000  0.79166667  0.00000000  1.0
  Al3+  Al26  1  0.75000000  0.66666667  0.66666667  1.0
  Al3+  Al27  1  0.75000000  0.16666667  0.66666667  1.0
  Al3+  Al28  1  0.50060000  0.29181667  0.83333333  1.0
  Al3+  Al29  1  0.50060000  0.79181667  0.83333333  1.0
  Al3+  Al30  1  0.74970000  0.41636667  0.16666667  1.0
  Al3+  Al31  1  0.74970000  0.91636667  0.16666667  1.0
  Al3+  Al32  1  0.25030000  0.54151667  0.50000000  1.0
  Al3+  Al33  1  0.25030000  0.04151667  0.50000000  1.0
  Al3+  Al34  1  0.25030000  0.41696667  0.16666667  1.0
  Al3+  Al35  1  0.25030000  0.91696667  0.16666667  1.0
  Al3+  Al36  1  0.74720000  0.54026667  0.50000000  1.0
  Al3+  Al37  1  0.74720000  0.04026667  0.50000000  1.0
  Al3+  Al38  1  0.49640000  0.29076667  0.83333333  1.0
  Al3+  Al39  1  0.49640000  0.79076667  0.83333333  1.0
  Al3+  Al40  1  0.75180000  0.29076667  0.50000000  1.0
  Al3+  Al41  1  0.75180000  0.79076667  0.50000000  1.0
  Al3+  Al42  1  0.75180000  0.41846667  0.16666667  1.0
  Al3+  Al43  1  0.75180000  0.91846667  0.16666667  1.0
  Al3+  Al44  1  0.50360000  0.54256667  0.83333333  1.0
  Al3+  Al45  1  0.50360000  0.04256667  0.83333333  1.0
  Al3+  Al46  1  0.24820000  0.54256667  0.50000000  1.0
  Al3+  Al47  1  0.24820000  0.04256667  0.50000000  1.0
  Si4+  Si48  1  0.00000000  0.29166667  0.33333333  1.0
  Si4+  Si49  1  0.00000000  0.79166667  0.33333333  1.0
  Si4+  Si50  1  0.75000000  0.54166667  0.00000000  1.0
  Si4+  Si51  1  0.75000000  0.04166667  0.00000000  1.0
  Si4+  Si52  1  0.25000000  0.66666667  0.66666667  1.0
  Si4+  Si53  1  0.25000000  0.16666667  0.66666667  1.0
  Si4+  Si54  1  0.00000000  0.54166667  0.33333333  1.0
  Si4+  Si55  1  0.00000000  0.04166667  0.33333333  1.0
  Si4+  Si56  1  0.74970000  0.29181667  0.50000000  1.0
  Si4+  Si57  1  0.74970000  0.79181667  0.50000000  1.0
  Si4+  Si58  1  0.49940000  0.54151667  0.83333333  1.0
  Si4+  Si59  1  0.49940000  0.04151667  0.83333333  1.0
  Si4+  Si60  1  0.00000000  0.29306667  0.83333333  1.0
  Si4+  Si61  1  0.00000000  0.79306667  0.83333333  1.0
  Si4+  Si62  1  0.25280000  0.66666667  0.16666667  1.0
  Si4+  Si63  1  0.25280000  0.16666667  0.16666667  1.0
  Si4+  Si64  1  0.00000000  0.54026667  0.83333333  1.0
  Si4+  Si65  1  0.00000000  0.04026667  0.83333333  1.0
  Si4+  Si66  1  0.25280000  0.29306667  0.50000000  1.0
  Si4+  Si67  1  0.25280000  0.79306667  0.50000000  1.0
  Si4+  Si68  1  0.74720000  0.66666667  0.16666667  1.0
  Si4+  Si69  1  0.74720000  0.16666667  0.16666667  1.0
  Si4+  Si70  1  0.24820000  0.41486667  0.16666667  1.0
  Si4+  Si71  1  0.24820000  0.91486667  0.16666667  1.0
  O2-  O72  1  0.20180000  0.21741667  0.57323333  1.0
  O2-  O73  1  0.20180000  0.71741667  0.57323333  1.0
  O2-  O74  1  0.89850000  0.21681667  0.23990000  1.0
  O2-  O75  1  0.89850000  0.71681667  0.23990000  1.0
  O2-  O76  1  0.89970000  0.56576667  0.90656667  1.0
  O2-  O77  1  0.89970000  0.06576667  0.90656667  1.0
  O2-  O78  1  0.79820000  0.61591667  0.57323333  1.0
  O2-  O79  1  0.79820000  0.11591667  0.57323333  1.0
  O2-  O80  1  0.10150000  0.61651667  0.23990000  1.0
  O2-  O81  1  0.10150000  0.11651667  0.23990000  1.0
  O2-  O82  1  0.10030000  0.26756667  0.90656667  1.0
  O2-  O83  1  0.10030000  0.76756667  0.90656667  1.0
  O2-  O84  1  0.79820000  0.61651667  0.09343333  1.0
  O2-  O85  1  0.79820000  0.11651667  0.09343333  1.0
  O2-  O86  1  0.10150000  0.26756667  0.42676667  1.0
  O2-  O87  1  0.10150000  0.76756667  0.42676667  1.0
  O2-  O88  1  0.10030000  0.61591667  0.76010000  1.0
  O2-  O89  1  0.10030000  0.11591667  0.76010000  1.0
  O2-  O90  1  0.20180000  0.21681667  0.09343333  1.0
  O2-  O91  1  0.20180000  0.71681667  0.09343333  1.0
  O2-  O92  1  0.89850000  0.56576667  0.42676667  1.0
  O2-  O93  1  0.89850000  0.06576667  0.42676667  1.0
  O2-  O94  1  0.89970000  0.21741667  0.76010000  1.0
  O2-  O95  1  0.89970000  0.71741667  0.76010000  1.0
  O2-  O96  1  0.70110000  0.21251667  0.59813333  1.0
  O2-  O97  1  0.70110000  0.71251667  0.59813333  1.0
  O2-  O98  1  0.90830000  0.47136667  0.26480000  1.0
  O2-  O99  1  0.90830000  0.97136667  0.26480000  1.0
  O2-  O100  1  0.39060000  0.31611667  0.93146667  1.0
  O2-  O101  1  0.39060000  0.81611667  0.93146667  1.0
  O2-  O102  1  0.29890000  0.62081667  0.59813333  1.0
  O2-  O103  1  0.29890000  0.12081667  0.59813333  1.0
  O2-  O104  1  0.09170000  0.36196667  0.26480000  1.0
  O2-  O105  1  0.09170000  0.86196667  0.26480000  1.0
  O2-  O106  1  0.60940000  0.51721667  0.93146667  1.0
  O2-  O107  1  0.60940000  0.01721667  0.93146667  1.0
  O2-  O108  1  0.29890000  0.36196667  0.06853333  1.0
  O2-  O109  1  0.29890000  0.86196667  0.06853333  1.0
  O2-  O110  1  0.09170000  0.51721667  0.40186667  1.0
  O2-  O111  1  0.09170000  0.01721667  0.40186667  1.0
  O2-  O112  1  0.60940000  0.62081667  0.73520000  1.0
  O2-  O113  1  0.60940000  0.12081667  0.73520000  1.0
  O2-  O114  1  0.70110000  0.47136667  0.06853333  1.0
  O2-  O115  1  0.70110000  0.97136667  0.06853333  1.0
  O2-  O116  1  0.90830000  0.31611667  0.40186667  1.0
  O2-  O117  1  0.90830000  0.81611667  0.40186667  1.0
  O2-  O118  1  0.39060000  0.21251667  0.73520000  1.0
  O2-  O119  1  0.39060000  0.71251667  0.73520000  1.0
  O2-  O120  1  0.69860000  0.46536667  0.59593333  1.0
  O2-  O121  1  0.69860000  0.96536667  0.59593333  1.0
  O2-  O122  1  0.40260000  0.21726667  0.26260000  1.0
  O2-  O123  1  0.40260000  0.71726667  0.26260000  1.0
  O2-  O124  1  0.89880000  0.31736667  0.92926667  1.0
  O2-  O125  1  0.89880000  0.81736667  0.92926667  1.0
  O2-  O126  1  0.30140000  0.36796667  0.59593333  1.0
  O2-  O127  1  0.30140000  0.86796667  0.59593333  1.0
  O2-  O128  1  0.59740000  0.61606667  0.26260000  1.0
  O2-  O129  1  0.59740000  0.11606667  0.26260000  1.0
  O2-  O130  1  0.10120000  0.51596667  0.92926667  1.0
  O2-  O131  1  0.10120000  0.01596667  0.92926667  1.0
  O2-  O132  1  0.30140000  0.61606667  0.07073333  1.0
  O2-  O133  1  0.30140000  0.11606667  0.07073333  1.0
  O2-  O134  1  0.59740000  0.51596667  0.40406667  1.0
  O2-  O135  1  0.59740000  0.01596667  0.40406667  1.0
  O2-  O136  1  0.10120000  0.36796667  0.73740000  1.0
  O2-  O137  1  0.10120000  0.86796667  0.73740000  1.0
  O2-  O138  1  0.69860000  0.21726667  0.07073333  1.0
  O2-  O139  1  0.69860000  0.71726667  0.07073333  1.0
  O2-  O140  1  0.40260000  0.31736667  0.40406667  1.0
  O2-  O141  1  0.40260000  0.81736667  0.40406667  1.0
  O2-  O142  1  0.89880000  0.46536667  0.73740000  1.0
  O2-  O143  1  0.89880000  0.96536667  0.73740000  1.0
  O2-  O144  1  0.20390000  0.46636667  0.58733333  1.0
  O2-  O145  1  0.20390000  0.96636667  0.58733333  1.0
  O2-  O146  1  0.40060000  0.46891667  0.25400000  1.0
  O2-  O147  1  0.40060000  0.96891667  0.25400000  1.0
  O2-  O148  1  0.39550000  0.56471667  0.92066667  1.0
  O2-  O149  1  0.39550000  0.06471667  0.92066667  1.0
  O2-  O150  1  0.79610000  0.36696667  0.58733333  1.0
  O2-  O151  1  0.79610000  0.86696667  0.58733333  1.0
  O2-  O152  1  0.59940000  0.36441667  0.25400000  1.0
  O2-  O153  1  0.59940000  0.86441667  0.25400000  1.0
  O2-  O154  1  0.60450000  0.26861667  0.92066667  1.0
  O2-  O155  1  0.60450000  0.76861667  0.92066667  1.0
  O2-  O156  1  0.79610000  0.36441667  0.07933333  1.0
  O2-  O157  1  0.79610000  0.86441667  0.07933333  1.0
  O2-  O158  1  0.59940000  0.26861667  0.41266667  1.0
  O2-  O159  1  0.59940000  0.76861667  0.41266667  1.0
  O2-  O160  1  0.60450000  0.36696667  0.74600000  1.0
  O2-  O161  1  0.60450000  0.86696667  0.74600000  1.0
  O2-  O162  1  0.20390000  0.46891667  0.07933333  1.0
  O2-  O163  1  0.20390000  0.96891667  0.07933333  1.0
  O2-  O164  1  0.40060000  0.56471667  0.41266667  1.0
  O2-  O165  1  0.40060000  0.06471667  0.41266667  1.0
  O2-  O166  1  0.39550000  0.46636667  0.74600000  1.0
  O2-  O167  1  0.39550000  0.96636667  0.74600000  1.0
