# generated using pymatgen
data_LiAlSiO4
_symmetry_space_group_name_H-M   'P 1'
_cell_length_a   21.04486000
_cell_length_b   10.52243000
_cell_length_c   11.10770000
_cell_angle_alpha   90.00000000
_cell_angle_beta   90.00000000
_cell_angle_gamma   120.00000000
_symmetry_Int_Tables_number   1
_chemical_formula_structural   LiAlSiO4
_chemical_formula_sum   'Li24 Al24 Si24 O96'
_cell_volume   2130.18273118
_cell_formula_units_Z   24
loop_
 _symmetry_equiv_pos_site_id
 _symmetry_equiv_pos_as_xyz
  1  'x, y, z'
loop_
 _atom_type_symbol
 _atom_type_oxidation_number
  Li+  1.0
  Al3+  3.0
  Si4+  4.0
  O2-  -2.0
loop_
 _atom_site_type_symbol
 _atom_site_label
 _atom_site_symmetry_multiplicity
 _atom_site_fract_x
 _atom_site_fract_y
 _atom_site_fract_z
 _atom_site_occupancy
  Li+  Li0  1  0.01075000  0.01200000  0.86073333  1.0
  Li+  Li0  1  0.51075000  0.01200000  0.86073333  1.0
  Li+  Li1  1  0.00600000  0.02150000  0.13926667  1.0
  Li+  Li1  1  0.50600000  0.02150000  0.13926667  1.0
  Li+  Li2  1  0.01075000  0.00950000  0.47260000  1.0
  Li+  Li2  1  0.51075000  0.00950000  0.47260000  1.0
  Li+  Li3  1  0.26240000  0.52090000  0.17840000  1.0
  Li+  Li3  1  0.76240000  0.52090000  0.17840000  1.0
  Li+  Li4  1  0.49805000  0.47520000  0.84506667  1.0
  Li+  Li4  1  0.99805000  0.47520000  0.84506667  1.0
  Li+  Li5  1  0.23955000  0.47520000  0.82160000  1.0
  Li+  Li5  1  0.73955000  0.47520000  0.82160000  1.0
  Li+  Li6  1  0.25950000  0.00680000  0.64113333  1.0
  Li+  Li6  1  0.75950000  0.00680000  0.64113333  1.0
  Li+  Li7  1  0.24050000  0.99320000  0.64113333  1.0
  Li+  Li7  1  0.74050000  0.99320000  0.64113333  1.0
  Li+  Li8  1  0.00340000  0.48780000  0.97446667  1.0
  Li+  Li8  1  0.50340000  0.48780000  0.97446667  1.0
  Li+  Li9  1  0.25610000  0.99320000  0.02553333  1.0
  Li+  Li9  1  0.75610000  0.99320000  0.02553333  1.0
  Li+  Li10  1  0.24050000  0.48780000  0.69220000  1.0
  Li+  Li10  1  0.74050000  0.48780000  0.69220000  1.0
  Li+  Li11  1  0.49660000  0.48100000  0.35886667  1.0
  Li+  Li11  1  0.99660000  0.48100000  0.35886667  1.0
  Al3+  Al12  1  0.37500000  0.75000000  0.00000000  1.0
  Al3+  Al12  1  0.87500000  0.75000000  0.00000000  1.0
  Al3+  Al13  1  0.00000000  0.25000000  0.66666667  1.0
  Al3+  Al13  1  0.50000000  0.25000000  0.66666667  1.0
  Al3+  Al14  1  0.37485000  0.49940000  0.83333333  1.0
  Al3+  Al14  1  0.87485000  0.49940000  0.83333333  1.0
  Al3+  Al15  1  0.25030000  0.25030000  0.16666667  1.0
  Al3+  Al15  1  0.75030000  0.25030000  0.16666667  1.0
  Al3+  Al16  1  0.12515000  0.74970000  0.50000000  1.0
  Al3+  Al16  1  0.62515000  0.74970000  0.50000000  1.0
  Al3+  Al17  1  0.24970000  0.74970000  0.16666667  1.0
  Al3+  Al17  1  0.74970000  0.74970000  0.16666667  1.0
  Al3+  Al18  1  0.12640000  0.25280000  0.50000000  1.0
  Al3+  Al18  1  0.62640000  0.25280000  0.50000000  1.0
  Al3+  Al19  1  0.37590000  0.50360000  0.83333333  1.0
  Al3+  Al19  1  0.87590000  0.50360000  0.83333333  1.0
  Al3+  Al20  1  0.37590000  0.24820000  0.50000000  1.0
  Al3+  Al20  1  0.87590000  0.24820000  0.50000000  1.0
  Al3+  Al21  1  0.24820000  0.24820000  0.16666667  1.0
  Al3+  Al21  1  0.74820000  0.24820000  0.16666667  1.0
  Al3+  Al22  1  0.12410000  0.49640000  0.83333333  1.0
  Al3+  Al22  1  0.62410000  0.49640000  0.83333333  1.0
  Al3+  Al23  1  0.12410000  0.75180000  0.50000000  1.0
  Al3+  Al23  1  0.62410000  0.75180000  0.50000000  1.0
  Si4+  Si24  1  0.37500000  0.00000000  0.33333333  1.0
  Si4+  Si24  1  0.87500000  0.00000000  0.33333333  1.0
  Si4+  Si25  1  0.12500000  0.25000000  0.00000000  1.0
  Si4+  Si25  1  0.62500000  0.25000000  0.00000000  1.0
  Si4+  Si26  1  0.00000000  0.75000000  0.66666667  1.0
  Si4+  Si26  1  0.50000000  0.75000000  0.66666667  1.0
  Si4+  Si27  1  0.12500000  0.00000000  0.33333333  1.0
  Si4+  Si27  1  0.62500000  0.00000000  0.33333333  1.0
  Si4+  Si28  1  0.37485000  0.25030000  0.50000000  1.0
  Si4+  Si28  1  0.87485000  0.25030000  0.50000000  1.0
  Si4+  Si29  1  0.12515000  0.50060000  0.83333333  1.0
  Si4+  Si29  1  0.62515000  0.50060000  0.83333333  1.0
  Si4+  Si30  1  0.37360000  0.00000000  0.83333333  1.0
  Si4+  Si30  1  0.87360000  0.00000000  0.83333333  1.0
  Si4+  Si31  1  0.00000000  0.74720000  0.16666667  1.0
  Si4+  Si31  1  0.50000000  0.74720000  0.16666667  1.0
  Si4+  Si32  1  0.12640000  0.00000000  0.83333333  1.0
  Si4+  Si32  1  0.62640000  0.00000000  0.83333333  1.0
  Si4+  Si33  1  0.37360000  0.74720000  0.50000000  1.0
  Si4+  Si33  1  0.87360000  0.74720000  0.50000000  1.0
  Si4+  Si34  1  0.00000000  0.25280000  0.16666667  1.0
  Si4+  Si34  1  0.50000000  0.25280000  0.16666667  1.0
  Si4+  Si35  1  0.25180000  0.75180000  0.16666667  1.0
  Si4+  Si35  1  0.75180000  0.75180000  0.16666667  1.0
  O2-  O1  1  0.44925000  0.79820000  0.57323333  1.0
  O2-  O1  1  0.94925000  0.79820000  0.57323333  1.0
  O2-  O1  1  0.44985000  0.10150000  0.23990000  1.0
  O2-  O1  1  0.94985000  0.10150000  0.23990000  1.0
  O2-  O1  1  0.10090000  0.10030000  0.90656667  1.0
  O2-  O1  1  0.60090000  0.10030000  0.90656667  1.0
  O2-  O1  1  0.05075000  0.20180000  0.57323333  1.0
  O2-  O1  1  0.55075000  0.20180000  0.57323333  1.0
  O2-  O1  1  0.05015000  0.89850000  0.23990000  1.0
  O2-  O1  1  0.55015000  0.89850000  0.23990000  1.0
  O2-  O1  1  0.39910000  0.89970000  0.90656667  1.0
  O2-  O1  1  0.89910000  0.89970000  0.90656667  1.0
  O2-  O1  1  0.05015000  0.20180000  0.09343333  1.0
  O2-  O1  1  0.55015000  0.20180000  0.09343333  1.0
  O2-  O1  1  0.39910000  0.89850000  0.42676667  1.0
  O2-  O1  1  0.89910000  0.89850000  0.42676667  1.0
  O2-  O1  1  0.05075000  0.89970000  0.76010000  1.0
  O2-  O1  1  0.55075000  0.89970000  0.76010000  1.0
  O2-  O1  1  0.44985000  0.79820000  0.09343333  1.0
  O2-  O1  1  0.94985000  0.79820000  0.09343333  1.0
  O2-  O1  1  0.10090000  0.10150000  0.42676667  1.0
  O2-  O1  1  0.60090000  0.10150000  0.42676667  1.0
  O2-  O1  1  0.44925000  0.10030000  0.76010000  1.0
  O2-  O1  1  0.94925000  0.10030000  0.76010000  1.0
  O2-  O2  1  0.45415000  0.29890000  0.59813333  1.0
  O2-  O2  1  0.95415000  0.29890000  0.59813333  1.0
  O2-  O2  1  0.19530000  0.09170000  0.26480000  1.0
  O2-  O2  1  0.69530000  0.09170000  0.26480000  1.0
  O2-  O2  1  0.35055000  0.60940000  0.93146667  1.0
  O2-  O2  1  0.85055000  0.60940000  0.93146667  1.0
  O2-  O2  1  0.04585000  0.70110000  0.59813333  1.0
  O2-  O2  1  0.54585000  0.70110000  0.59813333  1.0
  O2-  O2  1  0.30470000  0.90830000  0.26480000  1.0
  O2-  O2  1  0.80470000  0.90830000  0.26480000  1.0
  O2-  O2  1  0.14945000  0.39060000  0.93146667  1.0
  O2-  O2  1  0.64945000  0.39060000  0.93146667  1.0
  O2-  O2  1  0.30470000  0.70110000  0.06853333  1.0
  O2-  O2  1  0.80470000  0.70110000  0.06853333  1.0
  O2-  O2  1  0.14945000  0.90830000  0.40186667  1.0
  O2-  O2  1  0.64945000  0.90830000  0.40186667  1.0
  O2-  O2  1  0.04585000  0.39060000  0.73520000  1.0
  O2-  O2  1  0.54585000  0.39060000  0.73520000  1.0
  O2-  O2  1  0.19530000  0.29890000  0.06853333  1.0
  O2-  O2  1  0.69530000  0.29890000  0.06853333  1.0
  O2-  O2  1  0.35055000  0.09170000  0.40186667  1.0
  O2-  O2  1  0.85055000  0.09170000  0.40186667  1.0
  O2-  O2  1  0.45415000  0.60940000  0.73520000  1.0
  O2-  O2  1  0.95415000  0.60940000  0.73520000  1.0
  O2-  O3  1  0.20130000  0.30140000  0.59593333  1.0
  O2-  O3  1  0.70130000  0.30140000  0.59593333  1.0
  O2-  O3  1  0.44940000  0.59740000  0.26260000  1.0
  O2-  O3  1  0.94940000  0.59740000  0.26260000  1.0
  O2-  O3  1  0.34930000  0.10120000  0.92926667  1.0
  O2-  O3  1  0.84930000  0.10120000  0.92926667  1.0
  O2-  O3  1  0.29870000  0.69860000  0.59593333  1.0
  O2-  O3  1  0.79870000  0.69860000  0.59593333  1.0
  O2-  O3  1  0.05060000  0.40260000  0.26260000  1.0
  O2-  O3  1  0.55060000  0.40260000  0.26260000  1.0
  O2-  O3  1  0.15070000  0.89880000  0.92926667  1.0
  O2-  O3  1  0.65070000  0.89880000  0.92926667  1.0
  O2-  O3  1  0.05060000  0.69860000  0.07073333  1.0
  O2-  O3  1  0.55060000  0.69860000  0.07073333  1.0
  O2-  O3  1  0.15070000  0.40260000  0.40406667  1.0
  O2-  O3  1  0.65070000  0.40260000  0.40406667  1.0
  O2-  O3  1  0.29870000  0.89880000  0.73740000  1.0
  O2-  O3  1  0.79870000  0.89880000  0.73740000  1.0
  O2-  O3  1  0.44940000  0.30140000  0.07073333  1.0
  O2-  O3  1  0.94940000  0.30140000  0.07073333  1.0
  O2-  O3  1  0.34930000  0.59740000  0.40406667  1.0
  O2-  O3  1  0.84930000  0.59740000  0.40406667  1.0
  O2-  O3  1  0.20130000  0.10120000  0.73740000  1.0
  O2-  O3  1  0.70130000  0.10120000  0.73740000  1.0
  O2-  O4  1  0.20030000  0.79610000  0.58733333  1.0
  O2-  O4  1  0.70030000  0.79610000  0.58733333  1.0
  O2-  O4  1  0.19775000  0.59940000  0.25400000  1.0
  O2-  O4  1  0.69775000  0.59940000  0.25400000  1.0
  O2-  O4  1  0.10195000  0.60450000  0.92066667  1.0
  O2-  O4  1  0.60195000  0.60450000  0.92066667  1.0
  O2-  O4  1  0.29970000  0.20390000  0.58733333  1.0
  O2-  O4  1  0.79970000  0.20390000  0.58733333  1.0
  O2-  O4  1  0.30225000  0.40060000  0.25400000  1.0
  O2-  O4  1  0.80225000  0.40060000  0.25400000  1.0
  O2-  O4  1  0.39805000  0.39550000  0.92066667  1.0
  O2-  O4  1  0.89805000  0.39550000  0.92066667  1.0
  O2-  O4  1  0.30225000  0.20390000  0.07933333  1.0
  O2-  O4  1  0.80225000  0.20390000  0.07933333  1.0
  O2-  O4  1  0.39805000  0.40060000  0.41266667  1.0
  O2-  O4  1  0.89805000  0.40060000  0.41266667  1.0
  O2-  O4  1  0.29970000  0.39550000  0.74600000  1.0
  O2-  O4  1  0.79970000  0.39550000  0.74600000  1.0
  O2-  O4  1  0.19775000  0.79610000  0.07933333  1.0
  O2-  O4  1  0.69775000  0.79610000  0.07933333  1.0
  O2-  O4  1  0.10195000  0.59940000  0.41266667  1.0
  O2-  O4  1  0.60195000  0.59940000  0.41266667  1.0
  O2-  O4  1  0.20030000  0.60450000  0.74600000  1.0
  O2-  O4  1  0.70030000  0.60450000  0.74600000  1.0
