# generated using pymatgen
data_SrLi6La2(BiO6)2
_symmetry_space_group_name_H-M   'P 1'
_cell_length_a   11.33566632
_cell_length_b   11.33566632
_cell_length_c   22.67133264
_cell_angle_alpha   109.47122063
_cell_angle_beta   70.52877937
_cell_angle_gamma   70.52877937
_symmetry_Int_Tables_number   1
_chemical_formula_structural   SrLi6La2(BiO6)2
_chemical_formula_sum   'Sr8 Li48 La16 Bi16 O96'
_cell_volume   2242.58681894
_cell_formula_units_Z   8
loop_
 _symmetry_equiv_pos_site_id
 _symmetry_equiv_pos_as_xyz
  1  'x, y, z'
loop_
 _atom_type_symbol
 _atom_type_oxidation_number
  Sr2+  2.0
  Li+  1.0
  La3+  3.0
  Bi5+  5.0
  O2-  -2.0
loop_
 _atom_site_type_symbol
 _atom_site_label
 _atom_site_symmetry_multiplicity
 _atom_site_fract_x
 _atom_site_fract_y
 _atom_site_fract_z
 _atom_site_occupancy
  Sr2+  Sr0  1  0.25000000  0.87500000  0.31250000  1.0
  Sr2+  Sr1  1  0.25000000  0.87500000  0.81250000  1.0
  Sr2+  Sr2  1  0.12500000  0.62500000  0.37500000  1.0
  Sr2+  Sr3  1  0.12500000  0.62500000  0.87500000  1.0
  Sr2+  Sr4  1  0.37500000  0.75000000  0.43750000  1.0
  Sr2+  Sr5  1  0.37500000  0.75000000  0.93750000  1.0
  Sr2+  Sr6  1  0.87500000  0.75000000  0.68750000  1.0
  Sr2+  Sr7  1  0.87500000  0.75000000  0.18750000  1.0
  Li+  Li8  1  0.44950000  0.27460000  0.74495000  1.0
  Li+  Li9  1  0.44950000  0.27460000  0.24495000  1.0
  Li+  Li10  1  0.21530000  0.56060000  0.50505000  1.0
  Li+  Li11  1  0.21530000  0.56060000  0.00505000  1.0
  Li+  Li12  1  0.43940000  0.01010000  0.39235000  1.0
  Li+  Li13  1  0.43817877  0.00927314  0.89410418  1.0
  Li+  Li14  1  0.06060000  0.22410000  0.47475000  1.0
  Li+  Li15  1  0.06060000  0.22410000  0.97475000  1.0
  Li+  Li16  1  0.72061915  0.48672449  0.27581073  1.0
  Li+  Li17  1  0.72540000  0.48990000  0.77525000  1.0
  Li+  Li18  1  0.98990000  0.78470000  0.28030000  1.0
  Li+  Li19  1  0.98657710  0.78527625  0.78192271  1.0
  Li+  Li20  1  0.72365503  0.71571645  0.61068269  1.0
  Li+  Li21  1  0.72446987  0.71767106  0.11263617  1.0
  Li+  Li22  1  0.22540000  0.72410000  0.64235000  1.0
  Li+  Li23  1  0.22540000  0.72410000  0.14235000  1.0
  Li+  Li24  1  0.27460000  0.51010000  0.72475000  1.0
  Li+  Li25  1  0.27460000  0.51010000  0.22475000  1.0
  Li+  Li26  1  0.48990000  0.06060000  0.64235000  1.0
  Li+  Li27  1  0.48990000  0.06060000  0.14235000  1.0
  Li+  Li28  1  0.94950000  0.98990000  0.38730000  1.0
  Li+  Li29  1  0.94950000  0.98990000  0.88730000  1.0
  Li+  Li30  1  0.27460000  0.21530000  0.38795000  1.0
  Li+  Li31  1  0.27460000  0.21530000  0.88795000  1.0
  Li+  Li32  1  0.22872892  0.04985045  0.49474594  1.0
  Li+  Li33  1  0.22540000  0.05050000  0.99495000  1.0
  Li+  Li34  1  0.21530000  0.22410000  0.63730000  1.0
  Li+  Li35  1  0.21530000  0.22410000  0.13730000  1.0
  Li+  Li36  1  0.87500000  0.87500000  0.37500000  1.0
  Li+  Li37  1  0.88028689  0.87771883  0.87308081  1.0
  Li+  Li38  1  0.62500000  0.62500000  0.62500000  1.0
  Li+  Li39  1  0.62500000  0.62500000  0.12500000  1.0
  Li+  Li40  1  0.12500000  0.75000000  0.56250000  1.0
  Li+  Li41  1  0.12500000  0.75000000  0.06250000  1.0
  Li+  Li42  1  0.75000000  0.37500000  0.31250000  1.0
  Li+  Li43  1  0.75000000  0.37500000  0.81250000  1.0
  Li+  Li44  1  0.12500000  0.12500000  0.62500000  1.0
  Li+  Li45  1  0.12500000  0.12500000  0.12500000  1.0
  Li+  Li46  1  0.37817663  0.37581286  0.37508373  1.0
  Li+  Li47  1  0.37500000  0.37500000  0.87500000  1.0
  Li+  Li48  1  0.87500000  0.25000000  0.43750000  1.0
  Li+  Li49  1  0.87487891  0.25211749  0.93727439  1.0
  Li+  Li50  1  0.62500000  0.75000000  0.31250000  1.0
  Li+  Li51  1  0.62500000  0.75000000  0.81250000  1.0
  Li+  Li52  1  0.25000000  0.62500000  0.68750000  1.0
  Li+  Li53  1  0.25000000  0.62500000  0.18750000  1.0
  Li+  Li54  1  0.75000000  0.87500000  0.56250000  1.0
  Li+  Li55  1  0.74775702  0.87228832  0.06336331  1.0
  La3+  La56  1  0.75000000  0.62500000  0.43750000  1.0
  La3+  La57  1  0.75000000  0.62500000  0.93750000  1.0
  La3+  La58  1  0.37282544  0.87256050  0.62176602  1.0
  La3+  La59  1  0.37500000  0.87500000  0.12500000  1.0
  La3+  La60  1  0.12568448  0.25143714  0.31140859  1.0
  La3+  La61  1  0.12500000  0.25000000  0.81250000  1.0
  La3+  La62  1  0.25004162  0.37862413  0.56272773  1.0
  La3+  La63  1  0.24490980  0.37510518  0.06551136  1.0
  La3+  La64  1  0.75000000  0.12500000  0.68750000  1.0
  La3+  La65  1  0.75000000  0.12500000  0.18750000  1.0
  La3+  La66  1  0.87500000  0.37500000  0.62500000  1.0
  La3+  La67  1  0.87500000  0.37500000  0.12500000  1.0
  La3+  La68  1  0.62500000  0.12500000  0.37500000  1.0
  La3+  La69  1  0.62500000  0.12500000  0.87500000  1.0
  La3+  La70  1  0.62500000  0.25000000  0.56250000  1.0
  La3+  La71  1  0.62815642  0.24621480  0.06482449  1.0
  Bi5+  Bi72  1  0.00000000  0.50000000  0.75000000  1.0
  Bi5+  Bi73  1  0.00000000  0.50000000  0.25000000  1.0
  Bi5+  Bi74  1  0.50000000  0.50000000  0.50000000  1.0
  Bi5+  Bi75  1  0.50063865  0.50518168  0.00151799  1.0
  Bi5+  Bi76  1  0.00200551  0.99931663  0.50027917  1.0
  Bi5+  Bi77  1  0.00000000  0.00000000  0.00000000  1.0
  Bi5+  Bi78  1  0.50000000  0.00000000  0.75000000  1.0
  Bi5+  Bi79  1  0.50385461  0.99630609  0.25011770  1.0
  Bi5+  Bi80  1  0.00000000  0.50000000  0.50000000  1.0
  Bi5+  Bi81  1  0.00000000  0.50000000  0.00000000  1.0
  Bi5+  Bi82  1  0.50000000  0.50000000  0.75000000  1.0
  Bi5+  Bi83  1  0.50000000  0.50000000  0.25000000  1.0
  Bi5+  Bi84  1  0.50312081  0.00103115  0.49724818  1.0
  Bi5+  Bi85  1  0.50000000  0.00000000  0.00000000  1.0
  Bi5+  Bi86  1  0.00107652  0.00168941  0.74954484  1.0
  Bi5+  Bi87  1  0.00000000  0.00000000  0.25000000  1.0
  O2-  O88  1  0.90300000  0.68400000  0.48750000  1.0
  O2-  O89  1  0.90265058  0.68341335  0.98765378  1.0
  O2-  O90  1  0.59700000  0.87800000  0.54350000  1.0
  O2-  O91  1  0.59450452  0.88223572  0.04884146  1.0
  O2-  O92  1  0.29100000  0.62200000  0.26250000  1.0
  O2-  O93  1  0.29079741  0.62889256  0.76339820  1.0
  O2-  O94  1  0.20900000  0.81600000  0.70650000  1.0
  O2-  O95  1  0.20936734  0.81605196  0.20337270  1.0
  O2-  O96  1  0.37800000  0.52500000  0.35450000  1.0
  O2-  O97  1  0.37800000  0.52500000  0.85450000  1.0
  O2-  O98  1  0.18400000  0.41300000  0.39550000  1.0
  O2-  O99  1  0.18465344  0.41595368  0.89782619  1.0
  O2-  O100  1  0.31673562  0.97423109  0.55006658  1.0
  O2-  O101  1  0.31600000  0.97500000  0.04850000  1.0
  O2-  O102  1  0.12200000  0.08700000  0.70150000  1.0
  O2-  O103  1  0.12200000  0.08700000  0.20150000  1.0
  O2-  O104  1  0.58700000  0.79100000  0.40800000  1.0
  O2-  O105  1  0.58688013  0.78746100  0.90352123  1.0
  O2-  O106  1  0.47500000  0.70900000  0.31100000  1.0
  O2-  O107  1  0.47435540  0.71081486  0.81048171  1.0
  O2-  O108  1  0.91300000  0.40300000  0.43900000  1.0
  O2-  O109  1  0.91300000  0.40300000  0.93900000  1.0
  O2-  O110  1  0.02500000  0.09700000  0.34200000  1.0
  O2-  O111  1  0.02500000  0.09700000  0.84200000  1.0
  O2-  O112  1  0.09736675  0.31909494  0.51410549  1.0
  O2-  O113  1  0.09700000  0.31600000  0.01250000  1.0
  O2-  O114  1  0.40300000  0.12200000  0.45650000  1.0
  O2-  O115  1  0.40300000  0.12200000  0.95650000  1.0
  O2-  O116  1  0.70900000  0.37800000  0.73750000  1.0
  O2-  O117  1  0.70981010  0.37739076  0.24086283  1.0
  O2-  O118  1  0.79100000  0.18400000  0.29350000  1.0
  O2-  O119  1  0.79100000  0.18400000  0.79350000  1.0
  O2-  O120  1  0.62104460  0.47220313  0.64605014  1.0
  O2-  O121  1  0.62200000  0.47500000  0.14550000  1.0
  O2-  O122  1  0.81600000  0.58700000  0.60450000  1.0
  O2-  O123  1  0.81600000  0.58700000  0.10450000  1.0
  O2-  O124  1  0.68400000  0.02500000  0.45150000  1.0
  O2-  O125  1  0.68400000  0.02500000  0.95150000  1.0
  O2-  O126  1  0.87800000  0.91300000  0.29850000  1.0
  O2-  O127  1  0.87800000  0.91300000  0.79850000  1.0
  O2-  O128  1  0.41669301  0.20750316  0.58760757  1.0
  O2-  O129  1  0.41579360  0.20717840  0.09466098  1.0
  O2-  O130  1  0.52500000  0.29100000  0.68900000  1.0
  O2-  O131  1  0.52500000  0.29100000  0.18900000  1.0
  O2-  O132  1  0.08700000  0.59700000  0.56100000  1.0
  O2-  O133  1  0.08700000  0.59700000  0.06100000  1.0
  O2-  O134  1  0.97303545  0.90236131  0.65681506  1.0
  O2-  O135  1  0.97500000  0.90300000  0.15800000  1.0
  O2-  O136  1  0.08846218  0.31676735  0.64946983  1.0
  O2-  O137  1  0.08700000  0.31600000  0.14550000  1.0
  O2-  O138  1  0.97500000  0.12200000  0.60450000  1.0
  O2-  O139  1  0.97581380  0.12520333  0.10623572  1.0
  O2-  O140  1  0.41300000  0.37800000  0.45150000  1.0
  O2-  O141  1  0.41136652  0.37637031  0.94904290  1.0
  O2-  O142  1  0.52500000  0.18400000  0.29850000  1.0
  O2-  O143  1  0.52500000  0.18400000  0.79850000  1.0
  O2-  O144  1  0.40435602  0.47154142  0.59271920  1.0
  O2-  O145  1  0.40300000  0.47500000  0.09200000  1.0
  O2-  O146  1  0.10056111  0.58929580  0.68816207  1.0
  O2-  O147  1  0.09700000  0.58700000  0.18900000  1.0
  O2-  O148  1  0.79100000  0.02500000  0.56100000  1.0
  O2-  O149  1  0.79100000  0.02500000  0.06100000  1.0
  O2-  O150  1  0.70854940  0.91400376  0.65751050  1.0
  O2-  O151  1  0.70900000  0.91300000  0.15800000  1.0
  O2-  O152  1  0.87800000  0.20900000  0.51250000  1.0
  O2-  O153  1  0.87659939  0.20741063  0.01355673  1.0
  O2-  O154  1  0.68400000  0.29100000  0.45650000  1.0
  O2-  O155  1  0.68400000  0.29100000  0.95650000  1.0
  O2-  O156  1  0.81600000  0.59700000  0.73750000  1.0
  O2-  O157  1  0.81600000  0.59700000  0.23750000  1.0
  O2-  O158  1  0.62200000  0.90300000  0.29350000  1.0
  O2-  O159  1  0.62200000  0.90300000  0.79350000  1.0
  O2-  O160  1  0.91300000  0.68400000  0.35450000  1.0
  O2-  O161  1  0.91300000  0.68400000  0.85450000  1.0
  O2-  O162  1  0.02500000  0.87800000  0.39550000  1.0
  O2-  O163  1  0.02500000  0.87800000  0.89550000  1.0
  O2-  O164  1  0.58700000  0.62200000  0.54850000  1.0
  O2-  O165  1  0.58700000  0.62200000  0.04850000  1.0
  O2-  O166  1  0.47500000  0.81600000  0.70150000  1.0
  O2-  O167  1  0.47500000  0.81600000  0.20150000  1.0
  O2-  O168  1  0.59700000  0.52500000  0.40800000  1.0
  O2-  O169  1  0.60055539  0.52207086  0.90867249  1.0
  O2-  O170  1  0.90382442  0.41445534  0.30921267  1.0
  O2-  O171  1  0.90300000  0.41300000  0.81100000  1.0
  O2-  O172  1  0.20900000  0.97500000  0.43900000  1.0
  O2-  O173  1  0.20900000  0.97500000  0.93900000  1.0
  O2-  O174  1  0.29100000  0.08700000  0.34200000  1.0
  O2-  O175  1  0.29100000  0.08700000  0.84200000  1.0
  O2-  O176  1  0.12200000  0.79100000  0.48750000  1.0
  O2-  O177  1  0.12200000  0.79100000  0.98750000  1.0
  O2-  O178  1  0.31600000  0.70900000  0.54350000  1.0
  O2-  O179  1  0.31763345  0.70612537  0.04635587  1.0
  O2-  O180  1  0.18369101  0.40332927  0.25502234  1.0
  O2-  O181  1  0.18621338  0.40652436  0.76340741  1.0
  O2-  O182  1  0.37800000  0.09700000  0.70650000  1.0
  O2-  O183  1  0.37800000  0.09700000  0.20650000  1.0
