# generated using pymatgen
data_SrLi6La2(BiO6)2
_symmetry_space_group_name_H-M   'P 1'
_cell_length_a   22.49303948
_cell_length_b   11.24651974
_cell_length_c   11.24651974
_cell_angle_alpha   70.52877937
_cell_angle_beta   70.52877937
_cell_angle_gamma   109.47122063
_symmetry_Int_Tables_number   1
_chemical_formula_structural   SrLi6La2(BiO6)2
_chemical_formula_sum   'Sr8 Li48 La16 Bi16 O96'
_cell_volume   2190.09298734
_cell_formula_units_Z   8
loop_
 _symmetry_equiv_pos_site_id
 _symmetry_equiv_pos_as_xyz
  1  'x, y, z'
loop_
 _atom_type_symbol
 _atom_type_oxidation_number
  Sr2+  2.0
  Li+  1.0
  La3+  3.0
  Bi5+  5.0
  O2-  -2.0
loop_
 _atom_site_type_symbol
 _atom_site_label
 _atom_site_symmetry_multiplicity
 _atom_site_fract_x
 _atom_site_fract_y
 _atom_site_fract_z
 _atom_site_occupancy
  Sr2+  Sr0  1  0.56250000  0.41666667  0.12500000  1.0
  Sr2+  Sr1  1  0.06250000  0.41666667  0.12500000  1.0
  Sr2+  Sr2  1  0.62500000  0.54166667  0.37500000  1.0
  Sr2+  Sr3  1  0.12500000  0.54166667  0.37500000  1.0
  Sr2+  Sr4  1  0.68750000  0.29166667  0.25000000  1.0
  Sr2+  Sr5  1  0.18750000  0.29166667  0.25000000  1.0
  Sr2+  Sr6  1  0.93750000  0.79166667  0.25000000  1.0
  Sr2+  Sr7  1  0.43750000  0.79166667  0.25000000  1.0
  Li+  Li8  1  0.99495000  0.21716667  0.72540000  1.0
  Li+  Li9  1  0.49495000  0.21716667  0.72540000  1.0
  Li+  Li10  1  0.75505000  0.45136667  0.43940000  1.0
  Li+  Li11  1  0.25505000  0.45136667  0.43940000  1.0
  Li+  Li12  1  0.64235000  0.22726667  0.98990000  1.0
  Li+  Li13  1  0.14235000  0.22726667  0.98990000  1.0
  Li+  Li14  1  0.72475000  0.60606667  0.77590000  1.0
  Li+  Li15  1  0.22475000  0.60606667  0.77590000  1.0
  Li+  Li16  1  0.52525000  0.94126667  0.51010000  1.0
  Li+  Li17  1  0.02525000  0.94126667  0.51010000  1.0
  Li+  Li18  1  0.53030000  0.67676667  0.21530000  1.0
  Li+  Li19  1  0.03030000  0.67676667  0.21530000  1.0
  Li+  Li20  1  0.86270000  0.94256667  0.28470000  1.0
  Li+  Li21  1  0.36270000  0.94256667  0.28470000  1.0
  Li+  Li22  1  0.89235000  0.44126667  0.27590000  1.0
  Li+  Li23  1  0.39235000  0.44126667  0.27590000  1.0
  Li+  Li24  1  0.97475000  0.39206667  0.48990000  1.0
  Li+  Li25  1  0.47475000  0.39206667  0.48990000  1.0
  Li+  Li26  1  0.89235000  0.17676667  0.93940000  1.0
  Li+  Li27  1  0.39235000  0.17676667  0.93940000  1.0
  Li+  Li28  1  0.63730000  0.71716667  0.01010000  1.0
  Li+  Li29  1  0.13730000  0.71716667  0.01010000  1.0
  Li+  Li30  1  0.63795000  0.39206667  0.78470000  1.0
  Li+  Li31  1  0.13795000  0.39206667  0.78470000  1.0
  Li+  Li32  1  0.74495000  0.44126667  0.94950000  1.0
  Li+  Li33  1  0.24495000  0.44126667  0.94950000  1.0
  Li+  Li34  1  0.88730000  0.45136667  0.77590000  1.0
  Li+  Li35  1  0.38730000  0.45136667  0.77590000  1.0
  Li+  Li36  1  0.62500000  0.79166667  0.12500000  1.0
  Li+  Li37  1  0.12500000  0.79166667  0.12500000  1.0
  Li+  Li38  1  0.87500000  0.04166667  0.37500000  1.0
  Li+  Li39  1  0.37500000  0.04166667  0.37500000  1.0
  Li+  Li40  1  0.81250000  0.54166667  0.25000000  1.0
  Li+  Li41  1  0.31250000  0.54166667  0.25000000  1.0
  Li+  Li42  1  0.56250000  0.91666667  0.62500000  1.0
  Li+  Li43  1  0.06250000  0.91666667  0.62500000  1.0
  Li+  Li44  1  0.87500000  0.54166667  0.87500000  1.0
  Li+  Li45  1  0.37500000  0.54166667  0.87500000  1.0
  Li+  Li46  1  0.62500000  0.29166667  0.62500000  1.0
  Li+  Li47  1  0.12500000  0.29166667  0.62500000  1.0
  Li+  Li48  1  0.68750000  0.79166667  0.75000000  1.0
  Li+  Li49  1  0.18750000  0.79166667  0.75000000  1.0
  Li+  Li50  1  0.56250000  0.04166667  0.25000000  1.0
  Li+  Li51  1  0.06250000  0.04166667  0.25000000  1.0
  Li+  Li52  1  0.93750000  0.41666667  0.37500000  1.0
  Li+  Li53  1  0.43750000  0.41666667  0.37500000  1.0
  Li+  Li54  1  0.81250000  0.91666667  0.12500000  1.0
  Li+  Li55  1  0.31250000  0.91666667  0.12500000  1.0
  La3+  La56  1  0.68750000  0.91666667  0.37500000  1.0
  La3+  La57  1  0.18750000  0.91666667  0.37500000  1.0
  La3+  La58  1  0.87500000  0.29166667  0.12500000  1.0
  La3+  La59  1  0.37500000  0.29166667  0.12500000  1.0
  La3+  La60  1  0.56250000  0.54166667  0.75000000  1.0
  La3+  La61  1  0.06250000  0.54166667  0.75000000  1.0
  La3+  La62  1  0.81250000  0.41666667  0.62500000  1.0
  La3+  La63  1  0.31250000  0.41666667  0.62500000  1.0
  La3+  La64  1  0.93750000  0.91666667  0.87500000  1.0
  La3+  La65  1  0.43750000  0.91666667  0.87500000  1.0
  La3+  La66  1  0.87500000  0.79166667  0.62500000  1.0
  La3+  La67  1  0.37500000  0.79166667  0.62500000  1.0
  La3+  La68  1  0.62500000  0.04166667  0.87500000  1.0
  La3+  La69  1  0.12500000  0.04166667  0.87500000  1.0
  La3+  La70  1  0.81250000  0.04166667  0.75000000  1.0
  La3+  La71  1  0.31250000  0.04166667  0.75000000  1.0
  Bi5+  Bi72  1  0.00000000  0.66666667  0.50000000  1.0
  Bi5+  Bi73  1  0.50000000  0.66666667  0.50000000  1.0
  Bi5+  Bi74  1  0.75000000  0.16666667  0.50000000  1.0
  Bi5+  Bi75  1  0.25000000  0.16666667  0.50000000  1.0
  Bi5+  Bi76  1  0.75000000  0.66666667  0.00000000  1.0
  Bi5+  Bi77  1  0.25000000  0.66666667  0.00000000  1.0
  Bi5+  Bi78  1  0.00000000  0.16666667  0.00000000  1.0
  Bi5+  Bi79  1  0.50000000  0.16666667  0.00000000  1.0
  Bi5+  Bi80  1  0.75000000  0.66666667  0.50000000  1.0
  Bi5+  Bi81  1  0.25000000  0.66666667  0.50000000  1.0
  Bi5+  Bi82  1  0.00000000  0.16666667  0.50000000  1.0
  Bi5+  Bi83  1  0.50000000  0.16666667  0.50000000  1.0
  Bi5+  Bi84  1  0.75000000  0.16666667  0.00000000  1.0
  Bi5+  Bi85  1  0.25000000  0.16666667  0.00000000  1.0
  Bi5+  Bi86  1  0.00000000  0.66666667  0.00000000  1.0
  Bi5+  Bi87  1  0.50000000  0.66666667  0.00000000  1.0
  O2-  O88  1  0.73750000  0.76366667  0.31600000  1.0
  O2-  O89  1  0.23750000  0.76366667  0.31600000  1.0
  O2-  O90  1  0.79350000  0.06966667  0.12200000  1.0
  O2-  O91  1  0.29350000  0.06966667  0.12200000  1.0
  O2-  O92  1  0.51250000  0.37566667  0.37800000  1.0
  O2-  O93  1  0.01250000  0.37566667  0.37800000  1.0
  O2-  O94  1  0.95650000  0.45766667  0.18400000  1.0
  O2-  O95  1  0.45650000  0.45766667  0.18400000  1.0
  O2-  O96  1  0.60450000  0.28866667  0.47500000  1.0
  O2-  O97  1  0.10450000  0.28866667  0.47500000  1.0
  O2-  O98  1  0.64550000  0.48266667  0.58700000  1.0
  O2-  O99  1  0.14550000  0.48266667  0.58700000  1.0
  O2-  O100  1  0.79850000  0.35066667  0.02500000  1.0
  O2-  O101  1  0.29850000  0.35066667  0.02500000  1.0
  O2-  O102  1  0.95150000  0.54466667  0.91300000  1.0
  O2-  O103  1  0.45150000  0.54466667  0.91300000  1.0
  O2-  O104  1  0.65800000  0.07966667  0.20900000  1.0
  O2-  O105  1  0.15800000  0.07966667  0.20900000  1.0
  O2-  O106  1  0.56100000  0.19166667  0.29100000  1.0
  O2-  O107  1  0.06100000  0.19166667  0.29100000  1.0
  O2-  O108  1  0.68900000  0.75366667  0.59700000  1.0
  O2-  O109  1  0.18900000  0.75366667  0.59700000  1.0
  O2-  O110  1  0.59200000  0.64166667  0.90300000  1.0
  O2-  O111  1  0.09200000  0.64166667  0.90300000  1.0
  O2-  O112  1  0.76250000  0.56966667  0.68400000  1.0
  O2-  O113  1  0.26250000  0.56966667  0.68400000  1.0
  O2-  O114  1  0.70650000  0.26366667  0.87800000  1.0
  O2-  O115  1  0.20650000  0.26366667  0.87800000  1.0
  O2-  O116  1  0.98750000  0.95766667  0.62200000  1.0
  O2-  O117  1  0.48750000  0.95766667  0.62200000  1.0
  O2-  O118  1  0.54350000  0.87566667  0.81600000  1.0
  O2-  O119  1  0.04350000  0.87566667  0.81600000  1.0
  O2-  O120  1  0.89550000  0.04466667  0.52500000  1.0
  O2-  O121  1  0.39550000  0.04466667  0.52500000  1.0
  O2-  O122  1  0.85450000  0.85066667  0.41300000  1.0
  O2-  O123  1  0.35450000  0.85066667  0.41300000  1.0
  O2-  O124  1  0.70150000  0.98266667  0.97500000  1.0
  O2-  O125  1  0.20150000  0.98266667  0.97500000  1.0
  O2-  O126  1  0.54850000  0.78866667  0.08700000  1.0
  O2-  O127  1  0.04850000  0.78866667  0.08700000  1.0
  O2-  O128  1  0.84200000  0.25366667  0.79100000  1.0
  O2-  O129  1  0.34200000  0.25366667  0.79100000  1.0
  O2-  O130  1  0.93900000  0.14166667  0.70900000  1.0
  O2-  O131  1  0.43900000  0.14166667  0.70900000  1.0
  O2-  O132  1  0.81100000  0.57966667  0.40300000  1.0
  O2-  O133  1  0.31100000  0.57966667  0.40300000  1.0
  O2-  O134  1  0.90800000  0.69166667  0.09700000  1.0
  O2-  O135  1  0.40800000  0.69166667  0.09700000  1.0
  O2-  O136  1  0.89550000  0.57966667  0.68400000  1.0
  O2-  O137  1  0.39550000  0.57966667  0.68400000  1.0
  O2-  O138  1  0.85450000  0.69166667  0.87800000  1.0
  O2-  O139  1  0.35450000  0.69166667  0.87800000  1.0
  O2-  O140  1  0.70150000  0.25366667  0.62200000  1.0
  O2-  O141  1  0.20150000  0.25366667  0.62200000  1.0
  O2-  O142  1  0.54850000  0.14166667  0.81600000  1.0
  O2-  O143  1  0.04850000  0.14166667  0.81600000  1.0
  O2-  O144  1  0.84200000  0.26366667  0.52500000  1.0
  O2-  O145  1  0.34200000  0.26366667  0.52500000  1.0
  O2-  O146  1  0.93900000  0.56966667  0.41300000  1.0
  O2-  O147  1  0.43900000  0.56966667  0.41300000  1.0
  O2-  O148  1  0.81100000  0.87566667  0.97500000  1.0
  O2-  O149  1  0.31100000  0.87566667  0.97500000  1.0
  O2-  O150  1  0.90800000  0.95766667  0.08700000  1.0
  O2-  O151  1  0.40800000  0.95766667  0.08700000  1.0
  O2-  O152  1  0.76250000  0.78866667  0.79100000  1.0
  O2-  O153  1  0.26250000  0.78866667  0.79100000  1.0
  O2-  O154  1  0.70650000  0.98266667  0.70900000  1.0
  O2-  O155  1  0.20650000  0.98266667  0.70900000  1.0
  O2-  O156  1  0.98750000  0.85066667  0.40300000  1.0
  O2-  O157  1  0.48750000  0.85066667  0.40300000  1.0
  O2-  O158  1  0.54350000  0.04466667  0.09700000  1.0
  O2-  O159  1  0.04350000  0.04466667  0.09700000  1.0
  O2-  O160  1  0.60450000  0.75366667  0.31600000  1.0
  O2-  O161  1  0.10450000  0.75366667  0.31600000  1.0
  O2-  O162  1  0.64550000  0.64166667  0.12200000  1.0
  O2-  O163  1  0.14550000  0.64166667  0.12200000  1.0
  O2-  O164  1  0.79850000  0.07966667  0.37800000  1.0
  O2-  O165  1  0.29850000  0.07966667  0.37800000  1.0
  O2-  O166  1  0.95150000  0.19166667  0.18400000  1.0
  O2-  O167  1  0.45150000  0.19166667  0.18400000  1.0
  O2-  O168  1  0.65800000  0.06966667  0.47500000  1.0
  O2-  O169  1  0.15800000  0.06966667  0.47500000  1.0
  O2-  O170  1  0.56100000  0.76366667  0.58700000  1.0
  O2-  O171  1  0.06100000  0.76366667  0.58700000  1.0
  O2-  O172  1  0.68900000  0.45766667  0.02500000  1.0
  O2-  O173  1  0.18900000  0.45766667  0.02500000  1.0
  O2-  O174  1  0.59200000  0.37566667  0.91300000  1.0
  O2-  O175  1  0.09200000  0.37566667  0.91300000  1.0
  O2-  O176  1  0.73750000  0.54466667  0.20900000  1.0
  O2-  O177  1  0.23750000  0.54466667  0.20900000  1.0
  O2-  O178  1  0.79350000  0.35066667  0.29100000  1.0
  O2-  O179  1  0.29350000  0.35066667  0.29100000  1.0
  O2-  O180  1  0.51250000  0.48266667  0.59700000  1.0
  O2-  O181  1  0.01250000  0.48266667  0.59700000  1.0
  O2-  O182  1  0.95650000  0.28866667  0.90300000  1.0
  O2-  O183  1  0.45650000  0.28866667  0.90300000  1.0
