# generated using pymatgen
data_SrLi6La2(BiO6)2
_symmetry_space_group_name_H-M   'P 1'
_cell_length_a   11.33566632
_cell_length_b   22.67133264
_cell_length_c   11.33566632
_cell_angle_alpha   109.47122063
_cell_angle_beta   109.47122063
_cell_angle_gamma   109.47122063
_symmetry_Int_Tables_number   1
_chemical_formula_structural   SrLi6La2(BiO6)2
_chemical_formula_sum   'Sr8 Li48 La16 Bi16 O96'
_cell_volume   2242.58681894
_cell_formula_units_Z   8
loop_
 _symmetry_equiv_pos_site_id
 _symmetry_equiv_pos_as_xyz
  1  'x, y, z'
loop_
 _atom_type_symbol
 _atom_type_oxidation_number
  Sr2+  2.0
  Li+  1.0
  La3+  3.0
  Bi5+  5.0
  O2-  -2.0
loop_
 _atom_site_type_symbol
 _atom_site_label
 _atom_site_symmetry_multiplicity
 _atom_site_fract_x
 _atom_site_fract_y
 _atom_site_fract_z
 _atom_site_occupancy
  Sr2+  Sr0  1  0.25000000  0.43750000  0.12500000  1.0
  Sr2+  Sr0  1  0.25000000  0.93750000  0.12500000  1.0
  Sr2+  Sr1  1  0.12500000  0.37500000  0.37500000  1.0
  Sr2+  Sr1  1  0.12500000  0.87500000  0.37500000  1.0
  Sr2+  Sr2  1  0.37500000  0.31250000  0.25000000  1.0
  Sr2+  Sr2  1  0.37500000  0.81250000  0.25000000  1.0
  Sr2+  Sr3  1  0.87500000  0.06250000  0.25000000  1.0
  Sr2+  Sr3  1  0.87500000  0.56250000  0.25000000  1.0
  Li+  Li4  1  0.44950000  0.00505000  0.72540000  1.0
  Li+  Li4  1  0.44950000  0.50505000  0.72540000  1.0
  Li+  Li5  1  0.21530000  0.24495000  0.43940000  1.0
  Li+  Li5  1  0.21530000  0.74495000  0.43940000  1.0
  Li+  Li6  1  0.43940000  0.35765000  0.98990000  1.0
  Li+  Li6  1  0.43940000  0.85765000  0.98990000  1.0
  Li+  Li7  1  0.06060000  0.27525000  0.77590000  1.0
  Li+  Li7  1  0.06060000  0.77525000  0.77590000  1.0
  Li+  Li8  1  0.72540000  0.47475000  0.51010000  1.0
  Li+  Li8  1  0.72540000  0.97475000  0.51010000  1.0
  Li+  Li9  1  0.98990000  0.46970000  0.21530000  1.0
  Li+  Li9  1  0.98990000  0.96970000  0.21530000  1.0
  Li+  Li10  1  0.72410000  0.13730000  0.28470000  1.0
  Li+  Li10  1  0.72410000  0.63730000  0.28470000  1.0
  Li+  Li11  1  0.22540000  0.10765000  0.27590000  1.0
  Li+  Li11  1  0.22540000  0.60765000  0.27590000  1.0
  Li+  Li12  1  0.27460000  0.02525000  0.48990000  1.0
  Li+  Li12  1  0.27460000  0.52525000  0.48990000  1.0
  Li+  Li13  1  0.48990000  0.10765000  0.93940000  1.0
  Li+  Li13  1  0.48990000  0.60765000  0.93940000  1.0
  Li+  Li14  1  0.94950000  0.36270000  0.01010000  1.0
  Li+  Li14  1  0.94950000  0.86270000  0.01010000  1.0
  Li+  Li15  1  0.27460000  0.36205000  0.78470000  1.0
  Li+  Li15  1  0.27460000  0.86205000  0.78470000  1.0
  Li+  Li16  1  0.22540000  0.25505000  0.94950000  1.0
  Li+  Li16  1  0.22540000  0.75505000  0.94950000  1.0
  Li+  Li17  1  0.21530000  0.11270000  0.77590000  1.0
  Li+  Li17  1  0.21530000  0.61270000  0.77590000  1.0
  Li+  Li18  1  0.87500000  0.37500000  0.12500000  1.0
  Li+  Li18  1  0.87500000  0.87500000  0.12500000  1.0
  Li+  Li19  1  0.62500000  0.12500000  0.37500000  1.0
  Li+  Li19  1  0.62500000  0.62500000  0.37500000  1.0
  Li+  Li20  1  0.12500000  0.18750000  0.25000000  1.0
  Li+  Li20  1  0.12500000  0.68750000  0.25000000  1.0
  Li+  Li21  1  0.75000000  0.43750000  0.62500000  1.0
  Li+  Li21  1  0.75000000  0.93750000  0.62500000  1.0
  Li+  Li22  1  0.12500000  0.12500000  0.87500000  1.0
  Li+  Li22  1  0.12500000  0.62500000  0.87500000  1.0
  Li+  Li23  1  0.37500000  0.37500000  0.62500000  1.0
  Li+  Li23  1  0.37500000  0.87500000  0.62500000  1.0
  Li+  Li24  1  0.87500000  0.31250000  0.75000000  1.0
  Li+  Li24  1  0.87500000  0.81250000  0.75000000  1.0
  Li+  Li25  1  0.62500000  0.43750000  0.25000000  1.0
  Li+  Li25  1  0.62500000  0.93750000  0.25000000  1.0
  Li+  Li26  1  0.25000000  0.06250000  0.37500000  1.0
  Li+  Li26  1  0.25000000  0.56250000  0.37500000  1.0
  Li+  Li27  1  0.75000000  0.18750000  0.12500000  1.0
  Li+  Li27  1  0.75000000  0.68750000  0.12500000  1.0
  La3+  La28  1  0.75000000  0.31250000  0.37500000  1.0
  La3+  La28  1  0.75000000  0.81250000  0.37500000  1.0
  La3+  La29  1  0.37500000  0.12500000  0.12500000  1.0
  La3+  La29  1  0.37500000  0.62500000  0.12500000  1.0
  La3+  La30  1  0.12500000  0.43750000  0.75000000  1.0
  La3+  La30  1  0.12500000  0.93750000  0.75000000  1.0
  La3+  La31  1  0.25000000  0.18750000  0.62500000  1.0
  La3+  La31  1  0.25000000  0.68750000  0.62500000  1.0
  La3+  La32  1  0.75000000  0.06250000  0.87500000  1.0
  La3+  La32  1  0.75000000  0.56250000  0.87500000  1.0
  La3+  La33  1  0.87500000  0.12500000  0.62500000  1.0
  La3+  La33  1  0.87500000  0.62500000  0.62500000  1.0
  La3+  La34  1  0.62500000  0.37500000  0.87500000  1.0
  La3+  La34  1  0.62500000  0.87500000  0.87500000  1.0
  La3+  La35  1  0.62500000  0.18750000  0.75000000  1.0
  La3+  La35  1  0.62500000  0.68750000  0.75000000  1.0
  Bi5+  Bi1  1  0.00000000  0.00000000  0.50000000  1.0
  Bi5+  Bi1  1  0.00000000  0.50000000  0.50000000  1.0
  Bi5+  Bi1  1  0.50000000  0.25000000  0.50000000  1.0
  Bi5+  Bi1  1  0.50000000  0.75000000  0.50000000  1.0
  Bi5+  Bi1  1  0.00000000  0.25000000  0.00000000  1.0
  Bi5+  Bi1  1  0.00000000  0.75000000  0.00000000  1.0
  Bi5+  Bi1  1  0.50000000  0.00000000  0.00000000  1.0
  Bi5+  Bi1  1  0.50000000  0.50000000  0.00000000  1.0
  Bi5+  Bi1  1  0.00000000  0.25000000  0.50000000  1.0
  Bi5+  Bi1  1  0.00000000  0.75000000  0.50000000  1.0
  Bi5+  Bi1  1  0.50000000  0.00000000  0.50000000  1.0
  Bi5+  Bi1  1  0.50000000  0.50000000  0.50000000  1.0
  Bi5+  Bi1  1  0.50000000  0.25000000  0.00000000  1.0
  Bi5+  Bi1  1  0.50000000  0.75000000  0.00000000  1.0
  Bi5+  Bi1  1  0.00000000  0.00000000  0.00000000  1.0
  Bi5+  Bi1  1  0.00000000  0.50000000  0.00000000  1.0
  O2-  O1  1  0.90300000  0.26250000  0.31600000  1.0
  O2-  O1  1  0.90300000  0.76250000  0.31600000  1.0
  O2-  O1  1  0.59700000  0.20650000  0.12200000  1.0
  O2-  O1  1  0.59700000  0.70650000  0.12200000  1.0
  O2-  O1  1  0.29100000  0.48750000  0.37800000  1.0
  O2-  O1  1  0.29100000  0.98750000  0.37800000  1.0
  O2-  O1  1  0.20900000  0.04350000  0.18400000  1.0
  O2-  O1  1  0.20900000  0.54350000  0.18400000  1.0
  O2-  O1  1  0.37800000  0.39550000  0.47500000  1.0
  O2-  O1  1  0.37800000  0.89550000  0.47500000  1.0
  O2-  O1  1  0.18400000  0.35450000  0.58700000  1.0
  O2-  O1  1  0.18400000  0.85450000  0.58700000  1.0
  O2-  O1  1  0.31600000  0.20150000  0.02500000  1.0
  O2-  O1  1  0.31600000  0.70150000  0.02500000  1.0
  O2-  O1  1  0.12200000  0.04850000  0.91300000  1.0
  O2-  O1  1  0.12200000  0.54850000  0.91300000  1.0
  O2-  O1  1  0.58700000  0.34200000  0.20900000  1.0
  O2-  O1  1  0.58700000  0.84200000  0.20900000  1.0
  O2-  O1  1  0.47500000  0.43900000  0.29100000  1.0
  O2-  O1  1  0.47500000  0.93900000  0.29100000  1.0
  O2-  O1  1  0.91300000  0.31100000  0.59700000  1.0
  O2-  O1  1  0.91300000  0.81100000  0.59700000  1.0
  O2-  O1  1  0.02500000  0.40800000  0.90300000  1.0
  O2-  O1  1  0.02500000  0.90800000  0.90300000  1.0
  O2-  O1  1  0.09700000  0.23750000  0.68400000  1.0
  O2-  O1  1  0.09700000  0.73750000  0.68400000  1.0
  O2-  O1  1  0.40300000  0.29350000  0.87800000  1.0
  O2-  O1  1  0.40300000  0.79350000  0.87800000  1.0
  O2-  O1  1  0.70900000  0.01250000  0.62200000  1.0
  O2-  O1  1  0.70900000  0.51250000  0.62200000  1.0
  O2-  O1  1  0.79100000  0.45650000  0.81600000  1.0
  O2-  O1  1  0.79100000  0.95650000  0.81600000  1.0
  O2-  O1  1  0.62200000  0.10450000  0.52500000  1.0
  O2-  O1  1  0.62200000  0.60450000  0.52500000  1.0
  O2-  O1  1  0.81600000  0.14550000  0.41300000  1.0
  O2-  O1  1  0.81600000  0.64550000  0.41300000  1.0
  O2-  O1  1  0.68400000  0.29850000  0.97500000  1.0
  O2-  O1  1  0.68400000  0.79850000  0.97500000  1.0
  O2-  O1  1  0.87800000  0.45150000  0.08700000  1.0
  O2-  O1  1  0.87800000  0.95150000  0.08700000  1.0
  O2-  O1  1  0.41300000  0.15800000  0.79100000  1.0
  O2-  O1  1  0.41300000  0.65800000  0.79100000  1.0
  O2-  O1  1  0.52500000  0.06100000  0.70900000  1.0
  O2-  O1  1  0.52500000  0.56100000  0.70900000  1.0
  O2-  O1  1  0.08700000  0.18900000  0.40300000  1.0
  O2-  O1  1  0.08700000  0.68900000  0.40300000  1.0
  O2-  O1  1  0.97500000  0.09200000  0.09700000  1.0
  O2-  O1  1  0.97500000  0.59200000  0.09700000  1.0
  O2-  O1  1  0.08700000  0.10450000  0.68400000  1.0
  O2-  O1  1  0.08700000  0.60450000  0.68400000  1.0
  O2-  O1  1  0.97500000  0.14550000  0.87800000  1.0
  O2-  O1  1  0.97500000  0.64550000  0.87800000  1.0
  O2-  O1  1  0.41300000  0.29850000  0.62200000  1.0
  O2-  O1  1  0.41300000  0.79850000  0.62200000  1.0
  O2-  O1  1  0.52500000  0.45150000  0.81600000  1.0
  O2-  O1  1  0.52500000  0.95150000  0.81600000  1.0
  O2-  O1  1  0.40300000  0.15800000  0.52500000  1.0
  O2-  O1  1  0.40300000  0.65800000  0.52500000  1.0
  O2-  O1  1  0.09700000  0.06100000  0.41300000  1.0
  O2-  O1  1  0.09700000  0.56100000  0.41300000  1.0
  O2-  O1  1  0.79100000  0.18900000  0.97500000  1.0
  O2-  O1  1  0.79100000  0.68900000  0.97500000  1.0
  O2-  O1  1  0.70900000  0.09200000  0.08700000  1.0
  O2-  O1  1  0.70900000  0.59200000  0.08700000  1.0
  O2-  O1  1  0.87800000  0.23750000  0.79100000  1.0
  O2-  O1  1  0.87800000  0.73750000  0.79100000  1.0
  O2-  O1  1  0.68400000  0.29350000  0.70900000  1.0
  O2-  O1  1  0.68400000  0.79350000  0.70900000  1.0
  O2-  O1  1  0.81600000  0.01250000  0.40300000  1.0
  O2-  O1  1  0.81600000  0.51250000  0.40300000  1.0
  O2-  O1  1  0.62200000  0.45650000  0.09700000  1.0
  O2-  O1  1  0.62200000  0.95650000  0.09700000  1.0
  O2-  O1  1  0.91300000  0.39550000  0.31600000  1.0
  O2-  O1  1  0.91300000  0.89550000  0.31600000  1.0
  O2-  O1  1  0.02500000  0.35450000  0.12200000  1.0
  O2-  O1  1  0.02500000  0.85450000  0.12200000  1.0
  O2-  O1  1  0.58700000  0.20150000  0.37800000  1.0
  O2-  O1  1  0.58700000  0.70150000  0.37800000  1.0
  O2-  O1  1  0.47500000  0.04850000  0.18400000  1.0
  O2-  O1  1  0.47500000  0.54850000  0.18400000  1.0
  O2-  O1  1  0.59700000  0.34200000  0.47500000  1.0
  O2-  O1  1  0.59700000  0.84200000  0.47500000  1.0
  O2-  O1  1  0.90300000  0.43900000  0.58700000  1.0
  O2-  O1  1  0.90300000  0.93900000  0.58700000  1.0
  O2-  O1  1  0.20900000  0.31100000  0.02500000  1.0
  O2-  O1  1  0.20900000  0.81100000  0.02500000  1.0
  O2-  O1  1  0.29100000  0.40800000  0.91300000  1.0
  O2-  O1  1  0.29100000  0.90800000  0.91300000  1.0
  O2-  O1  1  0.12200000  0.26250000  0.20900000  1.0
  O2-  O1  1  0.12200000  0.76250000  0.20900000  1.0
  O2-  O1  1  0.31600000  0.20650000  0.29100000  1.0
  O2-  O1  1  0.31600000  0.70650000  0.29100000  1.0
  O2-  O1  1  0.18400000  0.48750000  0.59700000  1.0
  O2-  O1  1  0.18400000  0.98750000  0.59700000  1.0
  O2-  O1  1  0.37800000  0.04350000  0.90300000  1.0
  O2-  O1  1  0.37800000  0.54350000  0.90300000  1.0
