# generated using pymatgen
data_SrLi4N2
_symmetry_space_group_name_H-M   'P 1'
_cell_length_a   22.93200000
_cell_length_b   7.64400000
_cell_length_c   13.78844745
_cell_angle_alpha   97.96651168
_cell_angle_beta   97.96651168
_cell_angle_gamma   90.00000000
_symmetry_Int_Tables_number   1
_chemical_formula_structural   SrLi4N2
_chemical_formula_sum   'Sr24 Li96 N48'
_cell_volume   2370.12594487
_cell_formula_units_Z   24
loop_
 _symmetry_equiv_pos_site_id
 _symmetry_equiv_pos_as_xyz
  1  'x, y, z'
loop_
 _atom_type_symbol
 _atom_type_oxidation_number
  Sr2+  2.0
  Li+  1.0
  N3-  -3.0
loop_
 _atom_site_type_symbol
 _atom_site_label
 _atom_site_symmetry_multiplicity
 _atom_site_fract_x
 _atom_site_fract_y
 _atom_site_fract_z
 _atom_site_occupancy
  Sr2+  Sr1  1  0.02083333  0.43750000  0.25000000  1.0
  Sr2+  Sr1  1  0.35416667  0.43750000  0.25000000  1.0
  Sr2+  Sr1  1  0.68750000  0.43750000  0.25000000  1.0
  Sr2+  Sr1  1  0.02083333  0.93750000  0.25000000  1.0
  Sr2+  Sr1  1  0.35416667  0.93750000  0.25000000  1.0
  Sr2+  Sr1  1  0.68750000  0.93750000  0.25000000  1.0
  Sr2+  Sr1  1  0.18750000  0.43750000  0.25000000  1.0
  Sr2+  Sr1  1  0.52083333  0.43750000  0.25000000  1.0
  Sr2+  Sr1  1  0.85416667  0.43750000  0.25000000  1.0
  Sr2+  Sr1  1  0.18750000  0.93750000  0.25000000  1.0
  Sr2+  Sr1  1  0.52083333  0.93750000  0.25000000  1.0
  Sr2+  Sr1  1  0.85416667  0.93750000  0.25000000  1.0
  Sr2+  Sr1  1  0.14583333  0.06250000  0.75000000  1.0
  Sr2+  Sr1  1  0.47916667  0.06250000  0.75000000  1.0
  Sr2+  Sr1  1  0.81250000  0.06250000  0.75000000  1.0
  Sr2+  Sr1  1  0.14583333  0.56250000  0.75000000  1.0
  Sr2+  Sr1  1  0.47916667  0.56250000  0.75000000  1.0
  Sr2+  Sr1  1  0.81250000  0.56250000  0.75000000  1.0
  Sr2+  Sr1  1  0.31250000  0.06250000  0.75000000  1.0
  Sr2+  Sr1  1  0.64583333  0.06250000  0.75000000  1.0
  Sr2+  Sr1  1  0.97916667  0.06250000  0.75000000  1.0
  Sr2+  Sr1  1  0.31250000  0.56250000  0.75000000  1.0
  Sr2+  Sr1  1  0.64583333  0.56250000  0.75000000  1.0
  Sr2+  Sr1  1  0.97916667  0.56250000  0.75000000  1.0
  Li+  Li1  1  0.07436667  0.34810000  0.89240000  1.0
  Li+  Li1  1  0.40770000  0.34810000  0.89240000  1.0
  Li+  Li1  1  0.74103333  0.34810000  0.89240000  1.0
  Li+  Li1  1  0.07436667  0.84810000  0.89240000  1.0
  Li+  Li1  1  0.40770000  0.84810000  0.89240000  1.0
  Li+  Li1  1  0.74103333  0.84810000  0.89240000  1.0
  Li+  Li1  1  0.24103333  0.34810000  0.89240000  1.0
  Li+  Li1  1  0.57436667  0.34810000  0.89240000  1.0
  Li+  Li1  1  0.90770000  0.34810000  0.89240000  1.0
  Li+  Li1  1  0.24103333  0.84810000  0.89240000  1.0
  Li+  Li1  1  0.57436667  0.84810000  0.89240000  1.0
  Li+  Li1  1  0.90770000  0.84810000  0.89240000  1.0
  Li+  Li1  1  0.11603333  0.22310000  0.39240000  1.0
  Li+  Li1  1  0.44936667  0.22310000  0.39240000  1.0
  Li+  Li1  1  0.78270000  0.22310000  0.39240000  1.0
  Li+  Li1  1  0.11603333  0.72310000  0.39240000  1.0
  Li+  Li1  1  0.44936667  0.72310000  0.39240000  1.0
  Li+  Li1  1  0.78270000  0.72310000  0.39240000  1.0
  Li+  Li1  1  0.28270000  0.22310000  0.39240000  1.0
  Li+  Li1  1  0.61603333  0.22310000  0.39240000  1.0
  Li+  Li1  1  0.94936667  0.22310000  0.39240000  1.0
  Li+  Li1  1  0.28270000  0.72310000  0.39240000  1.0
  Li+  Li1  1  0.61603333  0.72310000  0.39240000  1.0
  Li+  Li1  1  0.94936667  0.72310000  0.39240000  1.0
  Li+  Li1  1  0.09230000  0.15190000  0.10760000  1.0
  Li+  Li1  1  0.42563333  0.15190000  0.10760000  1.0
  Li+  Li1  1  0.75896667  0.15190000  0.10760000  1.0
  Li+  Li1  1  0.09230000  0.65190000  0.10760000  1.0
  Li+  Li1  1  0.42563333  0.65190000  0.10760000  1.0
  Li+  Li1  1  0.75896667  0.65190000  0.10760000  1.0
  Li+  Li1  1  0.25896667  0.15190000  0.10760000  1.0
  Li+  Li1  1  0.59230000  0.15190000  0.10760000  1.0
  Li+  Li1  1  0.92563333  0.15190000  0.10760000  1.0
  Li+  Li1  1  0.25896667  0.65190000  0.10760000  1.0
  Li+  Li1  1  0.59230000  0.65190000  0.10760000  1.0
  Li+  Li1  1  0.92563333  0.65190000  0.10760000  1.0
  Li+  Li1  1  0.05063333  0.27690000  0.60760000  1.0
  Li+  Li1  1  0.38396667  0.27690000  0.60760000  1.0
  Li+  Li1  1  0.71730000  0.27690000  0.60760000  1.0
  Li+  Li1  1  0.05063333  0.77690000  0.60760000  1.0
  Li+  Li1  1  0.38396667  0.77690000  0.60760000  1.0
  Li+  Li1  1  0.71730000  0.77690000  0.60760000  1.0
  Li+  Li1  1  0.21730000  0.27690000  0.60760000  1.0
  Li+  Li1  1  0.55063333  0.27690000  0.60760000  1.0
  Li+  Li1  1  0.88396667  0.27690000  0.60760000  1.0
  Li+  Li1  1  0.21730000  0.77690000  0.60760000  1.0
  Li+  Li1  1  0.55063333  0.77690000  0.60760000  1.0
  Li+  Li1  1  0.88396667  0.77690000  0.60760000  1.0
  Li+  Li2  1  0.16316667  0.11450000  0.95800000  1.0
  Li+  Li2  1  0.49650000  0.11450000  0.95800000  1.0
  Li+  Li2  1  0.82983333  0.11450000  0.95800000  1.0
  Li+  Li2  1  0.16316667  0.61450000  0.95800000  1.0
  Li+  Li2  1  0.49650000  0.61450000  0.95800000  1.0
  Li+  Li2  1  0.82983333  0.61450000  0.95800000  1.0
  Li+  Li2  1  0.32983333  0.11450000  0.95800000  1.0
  Li+  Li2  1  0.66316667  0.11450000  0.95800000  1.0
  Li+  Li2  1  0.99650000  0.11450000  0.95800000  1.0
  Li+  Li2  1  0.32983333  0.61450000  0.95800000  1.0
  Li+  Li2  1  0.66316667  0.61450000  0.95800000  1.0
  Li+  Li2  1  0.99650000  0.61450000  0.95800000  1.0
  Li+  Li2  1  0.03816667  0.48950000  0.45800000  1.0
  Li+  Li2  1  0.37150000  0.48950000  0.45800000  1.0
  Li+  Li2  1  0.70483333  0.48950000  0.45800000  1.0
  Li+  Li2  1  0.03816667  0.98950000  0.45800000  1.0
  Li+  Li2  1  0.37150000  0.98950000  0.45800000  1.0
  Li+  Li2  1  0.70483333  0.98950000  0.45800000  1.0
  Li+  Li2  1  0.20483333  0.48950000  0.45800000  1.0
  Li+  Li2  1  0.53816667  0.48950000  0.45800000  1.0
  Li+  Li2  1  0.87150000  0.48950000  0.45800000  1.0
  Li+  Li2  1  0.20483333  0.98950000  0.45800000  1.0
  Li+  Li2  1  0.53816667  0.98950000  0.45800000  1.0
  Li+  Li2  1  0.87150000  0.98950000  0.45800000  1.0
  Li+  Li2  1  0.00350000  0.38550000  0.04200000  1.0
  Li+  Li2  1  0.33683333  0.38550000  0.04200000  1.0
  Li+  Li2  1  0.67016667  0.38550000  0.04200000  1.0
  Li+  Li2  1  0.00350000  0.88550000  0.04200000  1.0
  Li+  Li2  1  0.33683333  0.88550000  0.04200000  1.0
  Li+  Li2  1  0.67016667  0.88550000  0.04200000  1.0
  Li+  Li2  1  0.17016667  0.38550000  0.04200000  1.0
  Li+  Li2  1  0.50350000  0.38550000  0.04200000  1.0
  Li+  Li2  1  0.83683333  0.38550000  0.04200000  1.0
  Li+  Li2  1  0.17016667  0.88550000  0.04200000  1.0
  Li+  Li2  1  0.50350000  0.88550000  0.04200000  1.0
  Li+  Li2  1  0.83683333  0.88550000  0.04200000  1.0
  Li+  Li2  1  0.12850000  0.01050000  0.54200000  1.0
  Li+  Li2  1  0.46183333  0.01050000  0.54200000  1.0
  Li+  Li2  1  0.79516667  0.01050000  0.54200000  1.0
  Li+  Li2  1  0.12850000  0.51050000  0.54200000  1.0
  Li+  Li2  1  0.46183333  0.51050000  0.54200000  1.0
  Li+  Li2  1  0.79516667  0.51050000  0.54200000  1.0
  Li+  Li2  1  0.29516667  0.01050000  0.54200000  1.0
  Li+  Li2  1  0.62850000  0.01050000  0.54200000  1.0
  Li+  Li2  1  0.96183333  0.01050000  0.54200000  1.0
  Li+  Li2  1  0.29516667  0.51050000  0.54200000  1.0
  Li+  Li2  1  0.62850000  0.51050000  0.54200000  1.0
  Li+  Li2  1  0.96183333  0.51050000  0.54200000  1.0
  N3-  N1  1  0.11546667  0.47140000  0.38560000  1.0
  N3-  N1  1  0.44880000  0.47140000  0.38560000  1.0
  N3-  N1  1  0.78213333  0.47140000  0.38560000  1.0
  N3-  N1  1  0.11546667  0.97140000  0.38560000  1.0
  N3-  N1  1  0.44880000  0.97140000  0.38560000  1.0
  N3-  N1  1  0.78213333  0.97140000  0.38560000  1.0
  N3-  N1  1  0.28213333  0.47140000  0.38560000  1.0
  N3-  N1  1  0.61546667  0.47140000  0.38560000  1.0
  N3-  N1  1  0.94880000  0.47140000  0.38560000  1.0
  N3-  N1  1  0.28213333  0.97140000  0.38560000  1.0
  N3-  N1  1  0.61546667  0.97140000  0.38560000  1.0
  N3-  N1  1  0.94880000  0.97140000  0.38560000  1.0
  N3-  N1  1  0.15713333  0.34640000  0.88560000  1.0
  N3-  N1  1  0.49046667  0.34640000  0.88560000  1.0
  N3-  N1  1  0.82380000  0.34640000  0.88560000  1.0
  N3-  N1  1  0.15713333  0.84640000  0.88560000  1.0
  N3-  N1  1  0.49046667  0.84640000  0.88560000  1.0
  N3-  N1  1  0.82380000  0.84640000  0.88560000  1.0
  N3-  N1  1  0.32380000  0.34640000  0.88560000  1.0
  N3-  N1  1  0.65713333  0.34640000  0.88560000  1.0
  N3-  N1  1  0.99046667  0.34640000  0.88560000  1.0
  N3-  N1  1  0.32380000  0.84640000  0.88560000  1.0
  N3-  N1  1  0.65713333  0.84640000  0.88560000  1.0
  N3-  N1  1  0.99046667  0.84640000  0.88560000  1.0
  N3-  N1  1  0.05120000  0.02860000  0.61440000  1.0
  N3-  N1  1  0.38453333  0.02860000  0.61440000  1.0
  N3-  N1  1  0.71786667  0.02860000  0.61440000  1.0
  N3-  N1  1  0.05120000  0.52860000  0.61440000  1.0
  N3-  N1  1  0.38453333  0.52860000  0.61440000  1.0
  N3-  N1  1  0.71786667  0.52860000  0.61440000  1.0
  N3-  N1  1  0.21786667  0.02860000  0.61440000  1.0
  N3-  N1  1  0.55120000  0.02860000  0.61440000  1.0
  N3-  N1  1  0.88453333  0.02860000  0.61440000  1.0
  N3-  N1  1  0.21786667  0.52860000  0.61440000  1.0
  N3-  N1  1  0.55120000  0.52860000  0.61440000  1.0
  N3-  N1  1  0.88453333  0.52860000  0.61440000  1.0
  N3-  N1  1  0.00953333  0.15360000  0.11440000  1.0
  N3-  N1  1  0.34286667  0.15360000  0.11440000  1.0
  N3-  N1  1  0.67620000  0.15360000  0.11440000  1.0
  N3-  N1  1  0.00953333  0.65360000  0.11440000  1.0
  N3-  N1  1  0.34286667  0.65360000  0.11440000  1.0
  N3-  N1  1  0.67620000  0.65360000  0.11440000  1.0
  N3-  N1  1  0.17620000  0.15360000  0.11440000  1.0
  N3-  N1  1  0.50953333  0.15360000  0.11440000  1.0
  N3-  N1  1  0.84286667  0.15360000  0.11440000  1.0
  N3-  N1  1  0.17620000  0.65360000  0.11440000  1.0
  N3-  N1  1  0.50953333  0.65360000  0.11440000  1.0
  N3-  N1  1  0.84286667  0.65360000  0.11440000  1.0
