# generated using pymatgen
data_Li9Mg3P4O16F3
_symmetry_space_group_name_H-M   'P 1'
_cell_length_a   10.01640000
_cell_length_b   12.61590000
_cell_length_c   12.61590000
_cell_angle_alpha   120.00000000
_cell_angle_beta   90.00000000
_cell_angle_gamma   90.00000000
_symmetry_Int_Tables_number   1
_chemical_formula_structural   Li9Mg3P4O16F3
_chemical_formula_sum   'Li36 Mg12 P16 O64 F12'
_cell_volume   1380.63464458
_cell_formula_units_Z   4
loop_
 _symmetry_equiv_pos_site_id
 _symmetry_equiv_pos_as_xyz
  1  'x, y, z'
loop_
 _atom_type_symbol
 _atom_type_oxidation_number
  Li+  1.0
  Mg2+  2.0
  P5+  5.0
  O2-  -2.0
  F-  -1.0
loop_
 _atom_site_type_symbol
 _atom_site_label
 _atom_site_symmetry_multiplicity
 _atom_site_fract_x
 _atom_site_fract_y
 _atom_site_fract_z
 _atom_site_occupancy
  Li+  Li1  1  0.07695000  0.83250000  0.91600000  1.0
  Li+  Li1  1  0.57695000  0.83250000  0.91600000  1.0
  Li+  Li1  1  0.07695000  0.08400000  0.91650000  1.0
  Li+  Li1  1  0.57695000  0.08400000  0.91650000  1.0
  Li+  Li1  1  0.07695000  0.08350000  0.16750000  1.0
  Li+  Li1  1  0.57695000  0.08350000  0.16750000  1.0
  Li+  Li1  1  0.32695000  0.16750000  0.08400000  1.0
  Li+  Li1  1  0.82695000  0.16750000  0.08400000  1.0
  Li+  Li1  1  0.32695000  0.91600000  0.08350000  1.0
  Li+  Li1  1  0.82695000  0.91600000  0.08350000  1.0
  Li+  Li1  1  0.32695000  0.91650000  0.83250000  1.0
  Li+  Li1  1  0.82695000  0.91650000  0.83250000  1.0
  Li+  Li2  1  0.10020000  0.60420000  0.17480000  1.0
  Li+  Li2  1  0.60020000  0.60420000  0.17480000  1.0
  Li+  Li2  1  0.10020000  0.82520000  0.42940000  1.0
  Li+  Li2  1  0.60020000  0.82520000  0.42940000  1.0
  Li+  Li2  1  0.10020000  0.57060000  0.39580000  1.0
  Li+  Li2  1  0.60020000  0.57060000  0.39580000  1.0
  Li+  Li2  1  0.35020000  0.39580000  0.82520000  1.0
  Li+  Li2  1  0.85020000  0.39580000  0.82520000  1.0
  Li+  Li2  1  0.35020000  0.17480000  0.57060000  1.0
  Li+  Li2  1  0.85020000  0.17480000  0.57060000  1.0
  Li+  Li2  1  0.35020000  0.42940000  0.60420000  1.0
  Li+  Li2  1  0.85020000  0.42940000  0.60420000  1.0
  Li+  Li3  1  0.36445000  0.66530000  0.08620000  1.0
  Li+  Li3  1  0.86445000  0.66530000  0.08620000  1.0
  Li+  Li3  1  0.36445000  0.91380000  0.57910000  1.0
  Li+  Li3  1  0.86445000  0.91380000  0.57910000  1.0
  Li+  Li3  1  0.36445000  0.42090000  0.33470000  1.0
  Li+  Li3  1  0.86445000  0.42090000  0.33470000  1.0
  Li+  Li3  1  0.11445000  0.33470000  0.91380000  1.0
  Li+  Li3  1  0.61445000  0.33470000  0.91380000  1.0
  Li+  Li3  1  0.11445000  0.08620000  0.42090000  1.0
  Li+  Li3  1  0.61445000  0.08620000  0.42090000  1.0
  Li+  Li3  1  0.11445000  0.57910000  0.66530000  1.0
  Li+  Li3  1  0.61445000  0.57910000  0.66530000  1.0
  Mg2+  Mg1  1  0.11565000  0.57406000  0.93255000  1.0
  Mg2+  Mg1  1  0.61565000  0.57406000  0.93255000  1.0
  Mg2+  Mg1  1  0.11565000  0.06745000  0.64151000  1.0
  Mg2+  Mg1  1  0.61565000  0.06745000  0.64151000  1.0
  Mg2+  Mg1  1  0.11565000  0.35849000  0.42594000  1.0
  Mg2+  Mg1  1  0.61565000  0.35849000  0.42594000  1.0
  Mg2+  Mg1  1  0.36565000  0.42594000  0.06745000  1.0
  Mg2+  Mg1  1  0.86565000  0.42594000  0.06745000  1.0
  Mg2+  Mg1  1  0.36565000  0.93255000  0.35849000  1.0
  Mg2+  Mg1  1  0.86565000  0.93255000  0.35849000  1.0
  Mg2+  Mg1  1  0.36565000  0.64151000  0.57406000  1.0
  Mg2+  Mg1  1  0.86565000  0.64151000  0.57406000  1.0
  P5+  P1  1  0.12288200  0.84677000  0.16576000  1.0
  P5+  P1  1  0.62288200  0.84677000  0.16576000  1.0
  P5+  P1  1  0.12288200  0.83424000  0.68101000  1.0
  P5+  P1  1  0.62288200  0.83424000  0.68101000  1.0
  P5+  P1  1  0.12288200  0.31899000  0.15323000  1.0
  P5+  P1  1  0.62288200  0.31899000  0.15323000  1.0
  P5+  P1  1  0.37288200  0.15323000  0.83424000  1.0
  P5+  P1  1  0.87288200  0.15323000  0.83424000  1.0
  P5+  P1  1  0.37288200  0.16576000  0.31899000  1.0
  P5+  P1  1  0.87288200  0.16576000  0.31899000  1.0
  P5+  P1  1  0.37288200  0.68101000  0.84677000  1.0
  P5+  P1  1  0.87288200  0.68101000  0.84677000  1.0
  P5+  P2  1  0.35230000  0.66666667  0.33333333  1.0
  P5+  P2  1  0.85230000  0.66666667  0.33333333  1.0
  P5+  P2  1  0.10230000  0.33333333  0.66666667  1.0
  P5+  P2  1  0.60230000  0.33333333  0.66666667  1.0
  O2-  O1  1  0.40700000  0.79753000  0.39568000  1.0
  O2-  O1  1  0.90700000  0.79753000  0.39568000  1.0
  O2-  O1  1  0.40700000  0.60432000  0.40185000  1.0
  O2-  O1  1  0.90700000  0.60432000  0.40185000  1.0
  O2-  O1  1  0.40700000  0.59815000  0.20247000  1.0
  O2-  O1  1  0.90700000  0.59815000  0.20247000  1.0
  O2-  O1  1  0.15700000  0.20247000  0.60432000  1.0
  O2-  O1  1  0.65700000  0.20247000  0.60432000  1.0
  O2-  O1  1  0.15700000  0.39568000  0.59815000  1.0
  O2-  O1  1  0.65700000  0.39568000  0.59815000  1.0
  O2-  O1  1  0.15700000  0.40185000  0.79753000  1.0
  O2-  O1  1  0.65700000  0.40185000  0.79753000  1.0
  O2-  O2  1  0.12345000  0.90817000  0.08608000  1.0
  O2-  O2  1  0.62345000  0.90817000  0.08608000  1.0
  O2-  O2  1  0.12345000  0.91392000  0.82209000  1.0
  O2-  O2  1  0.62345000  0.91392000  0.82209000  1.0
  O2-  O2  1  0.12345000  0.17791000  0.09183000  1.0
  O2-  O2  1  0.62345000  0.17791000  0.09183000  1.0
  O2-  O2  1  0.37345000  0.09183000  0.91392000  1.0
  O2-  O2  1  0.87345000  0.09183000  0.91392000  1.0
  O2-  O2  1  0.37345000  0.08608000  0.17791000  1.0
  O2-  O2  1  0.87345000  0.08608000  0.17791000  1.0
  O2-  O2  1  0.37345000  0.82209000  0.90817000  1.0
  O2-  O2  1  0.87345000  0.82209000  0.90817000  1.0
  O2-  O3  1  0.05905000  0.71919000  0.09711000  1.0
  O2-  O3  1  0.55905000  0.71919000  0.09711000  1.0
  O2-  O3  1  0.05905000  0.90289000  0.62208000  1.0
  O2-  O3  1  0.55905000  0.90289000  0.62208000  1.0
  O2-  O3  1  0.05905000  0.37792000  0.28081000  1.0
  O2-  O3  1  0.55905000  0.37792000  0.28081000  1.0
  O2-  O3  1  0.30905000  0.28081000  0.90289000  1.0
  O2-  O3  1  0.80905000  0.28081000  0.90289000  1.0
  O2-  O3  1  0.30905000  0.09711000  0.37792000  1.0
  O2-  O3  1  0.80905000  0.09711000  0.37792000  1.0
  O2-  O3  1  0.30905000  0.62208000  0.71919000  1.0
  O2-  O3  1  0.80905000  0.62208000  0.71919000  1.0
  O2-  O4  1  0.04690000  0.92630000  0.28440000  1.0
  O2-  O4  1  0.54690000  0.92630000  0.28440000  1.0
  O2-  O4  1  0.04690000  0.71560000  0.64190000  1.0
  O2-  O4  1  0.54690000  0.71560000  0.64190000  1.0
  O2-  O4  1  0.04690000  0.35810000  0.07370000  1.0
  O2-  O4  1  0.54690000  0.35810000  0.07370000  1.0
  O2-  O4  1  0.29690000  0.07370000  0.71560000  1.0
  O2-  O4  1  0.79690000  0.07370000  0.71560000  1.0
  O2-  O4  1  0.29690000  0.28440000  0.35810000  1.0
  O2-  O4  1  0.79690000  0.28440000  0.35810000  1.0
  O2-  O4  1  0.29690000  0.64190000  0.92630000  1.0
  O2-  O4  1  0.79690000  0.64190000  0.92630000  1.0
  O2-  O5  1  0.27095000  0.83408000  0.19409000  1.0
  O2-  O5  1  0.77095000  0.83408000  0.19409000  1.0
  O2-  O5  1  0.27095000  0.80591000  0.63999000  1.0
  O2-  O5  1  0.77095000  0.80591000  0.63999000  1.0
  O2-  O5  1  0.27095000  0.36001000  0.16592000  1.0
  O2-  O5  1  0.77095000  0.36001000  0.16592000  1.0
  O2-  O5  1  0.02095000  0.16592000  0.80591000  1.0
  O2-  O5  1  0.52095000  0.16592000  0.80591000  1.0
  O2-  O5  1  0.02095000  0.19409000  0.36001000  1.0
  O2-  O5  1  0.52095000  0.19409000  0.36001000  1.0
  O2-  O5  1  0.02095000  0.63999000  0.83408000  1.0
  O2-  O5  1  0.52095000  0.63999000  0.83408000  1.0
  O2-  O6  1  0.19890000  0.66666667  0.33333333  1.0
  O2-  O6  1  0.69890000  0.66666667  0.33333333  1.0
  O2-  O6  1  0.44890000  0.33333333  0.66666667  1.0
  O2-  O6  1  0.94890000  0.33333333  0.66666667  1.0
  F-  F1  1  0.21295000  0.51628000  0.03892000  1.0
  F-  F1  1  0.71295000  0.51628000  0.03892000  1.0
  F-  F1  1  0.21295000  0.96108000  0.47736000  1.0
  F-  F1  1  0.71295000  0.96108000  0.47736000  1.0
  F-  F1  1  0.21295000  0.52264000  0.48372000  1.0
  F-  F1  1  0.71295000  0.52264000  0.48372000  1.0
  F-  F1  1  0.46295000  0.48372000  0.96108000  1.0
  F-  F1  1  0.96295000  0.48372000  0.96108000  1.0
  F-  F1  1  0.46295000  0.03892000  0.52264000  1.0
  F-  F1  1  0.96295000  0.03892000  0.52264000  1.0
  F-  F1  1  0.46295000  0.47736000  0.51628000  1.0
  F-  F1  1  0.96295000  0.47736000  0.51628000  1.0
