# generated using pymatgen
data_LiGd(PO3)4
_symmetry_space_group_name_H-M   'P 1'
_cell_length_a   14.11800000
_cell_length_b   8.93056229
_cell_length_c   17.84181820
_cell_angle_alpha   65.65123430
_cell_angle_beta   113.30611564
_cell_angle_gamma   113.27943838
_symmetry_Int_Tables_number   1
_chemical_formula_structural   LiGd(PO3)4
_chemical_formula_sum   'Li8 Gd8 P32 O96'
_cell_volume   1808.34881139
_cell_formula_units_Z   8
loop_
 _symmetry_equiv_pos_site_id
 _symmetry_equiv_pos_as_xyz
  1  'x, y, z'
loop_
 _atom_type_symbol
 _atom_type_oxidation_number
  Li+  1.0
  Gd3+  3.0
  P5+  5.0
  O2-  -2.0
loop_
 _atom_site_type_symbol
 _atom_site_label
 _atom_site_symmetry_multiplicity
 _atom_site_fract_x
 _atom_site_fract_y
 _atom_site_fract_z
 _atom_site_occupancy
  Li+  Li0  1  0.39504213  0.25035611  0.62327165  1.0
  Li+  Li1  1  0.39860000  0.25000000  0.12500000  1.0
  Li+  Li2  1  0.89860000  0.25000000  0.62500000  1.0
  Li+  Li3  1  0.89332354  0.24720081  0.12381790  1.0
  Li+  Li4  1  0.10140000  0.75000000  0.37500000  1.0
  Li+  Li5  1  0.10140000  0.75000000  0.87500000  1.0
  Li+  Li6  1  0.60140000  0.75000000  0.37500000  1.0
  Li+  Li7  1  0.59860857  0.75037263  0.87303716  1.0
  Gd3+  Gd8  1  0.14838650  0.24852545  0.62679403  1.0
  Gd3+  Gd9  1  0.14897000  0.25000000  0.12500000  1.0
  Gd3+  Gd10  1  0.65178159  0.24708491  0.62700228  1.0
  Gd3+  Gd11  1  0.64897000  0.25000000  0.12500000  1.0
  Gd3+  Gd12  1  0.35536701  0.74970583  0.37742888  1.0
  Gd3+  Gd13  1  0.35103000  0.75000000  0.87500000  1.0
  Gd3+  Gd14  1  0.85103000  0.75000000  0.37500000  1.0
  Gd3+  Gd15  1  0.85103000  0.75000000  0.87500000  1.0
  P5+  P16  1  0.45787000  0.83845000  0.69285500  1.0
  P5+  P17  1  0.45787000  0.83845000  0.19285500  1.0
  P5+  P18  1  0.95787000  0.83845000  0.69285500  1.0
  P5+  P19  1  0.95787000  0.83845000  0.19285500  1.0
  P5+  P20  1  0.09506194  0.66281368  0.55653343  1.0
  P5+  P21  1  0.09579000  0.66155000  0.05714500  1.0
  P5+  P22  1  0.59579000  0.66155000  0.55714500  1.0
  P5+  P23  1  0.59579000  0.66155000  0.05714500  1.0
  P5+  P24  1  0.04213000  0.16155000  0.30714500  1.0
  P5+  P25  1  0.04213000  0.16155000  0.80714500  1.0
  P5+  P26  1  0.54213000  0.16155000  0.30714500  1.0
  P5+  P27  1  0.54213000  0.16155000  0.80714500  1.0
  P5+  P28  1  0.40421000  0.33845000  0.44285500  1.0
  P5+  P29  1  0.40421000  0.33845000  0.94285500  1.0
  P5+  P30  1  0.90421000  0.33845000  0.44285500  1.0
  P5+  P31  1  0.90421000  0.33845000  0.94285500  1.0
  P5+  P32  1  0.25276000  0.90328000  0.65088000  1.0
  P5+  P33  1  0.25408689  0.90772520  0.14933736  1.0
  P5+  P34  1  0.75276000  0.90328000  0.65088000  1.0
  P5+  P35  1  0.75276000  0.90328000  0.15088000  1.0
  P5+  P36  1  0.40024000  0.59672000  0.59912000  1.0
  P5+  P37  1  0.40074020  0.59741559  0.09749589  1.0
  P5+  P38  1  0.90024000  0.59672000  0.59912000  1.0
  P5+  P39  1  0.90412819  0.59455968  0.10036048  1.0
  P5+  P40  1  0.24724000  0.09672000  0.34912000  1.0
  P5+  P41  1  0.24708628  0.09730413  0.84658564  1.0
  P5+  P42  1  0.74724000  0.09672000  0.34912000  1.0
  P5+  P43  1  0.74724000  0.09672000  0.84912000  1.0
  P5+  P44  1  0.10016875  0.40407219  0.39892270  1.0
  P5+  P45  1  0.09976000  0.40328000  0.90088000  1.0
  P5+  P46  1  0.59976000  0.40328000  0.40088000  1.0
  P5+  P47  1  0.59976000  0.40328000  0.90088000  1.0
  O2-  O48  1  0.35905000  0.91600000  0.63350000  1.0
  O2-  O49  1  0.35905000  0.91600000  0.13350000  1.0
  O2-  O50  1  0.85905000  0.91600000  0.63350000  1.0
  O2-  O51  1  0.85905000  0.91600000  0.13350000  1.0
  O2-  O52  1  0.01755000  0.58400000  0.61650000  1.0
  O2-  O53  1  0.01751504  0.58127038  0.11407119  1.0
  O2-  O54  1  0.51755000  0.58400000  0.61650000  1.0
  O2-  O55  1  0.51704355  0.58126292  0.11316769  1.0
  O2-  O56  1  0.14095000  0.08400000  0.36650000  1.0
  O2-  O57  1  0.14095000  0.08400000  0.86650000  1.0
  O2-  O58  1  0.63939991  0.08387720  0.36683886  1.0
  O2-  O59  1  0.64095000  0.08400000  0.86650000  1.0
  O2-  O60  1  0.48245000  0.41600000  0.38350000  1.0
  O2-  O61  1  0.48245000  0.41600000  0.88350000  1.0
  O2-  O62  1  0.98245000  0.41600000  0.38350000  1.0
  O2-  O63  1  0.98245000  0.41600000  0.88350000  1.0
  O2-  O64  1  0.41855000  0.65700000  0.67710000  1.0
  O2-  O65  1  0.41855000  0.65700000  0.17710000  1.0
  O2-  O66  1  0.92165253  0.65732549  0.67558479  1.0
  O2-  O67  1  0.91855000  0.65700000  0.17710000  1.0
  O2-  O68  1  0.16295000  0.84300000  0.57290000  1.0
  O2-  O69  1  0.16410819  0.84144303  0.07065492  1.0
  O2-  O70  1  0.66295000  0.84300000  0.57290000  1.0
  O2-  O71  1  0.66265230  0.84708732  0.07533124  1.0
  O2-  O72  1  0.08145000  0.34300000  0.32290000  1.0
  O2-  O73  1  0.08449558  0.34753074  0.82433747  1.0
  O2-  O74  1  0.58145000  0.34300000  0.32290000  1.0
  O2-  O75  1  0.58145000  0.34300000  0.82290000  1.0
  O2-  O76  1  0.33705000  0.15700000  0.42710000  1.0
  O2-  O77  1  0.33705000  0.15700000  0.92710000  1.0
  O2-  O78  1  0.83705000  0.15700000  0.42710000  1.0
  O2-  O79  1  0.83825147  0.15872336  0.92828501  1.0
  O2-  O80  1  0.25900000  0.08430000  0.63585000  1.0
  O2-  O81  1  0.25900000  0.08430000  0.13585000  1.0
  O2-  O82  1  0.75900000  0.08430000  0.63585000  1.0
  O2-  O83  1  0.75900000  0.08430000  0.13585000  1.0
  O2-  O84  1  0.33100000  0.41570000  0.61415000  1.0
  O2-  O85  1  0.33100000  0.41570000  0.11415000  1.0
  O2-  O86  1  0.83100000  0.41570000  0.61415000  1.0
  O2-  O87  1  0.83100000  0.41570000  0.11415000  1.0
  O2-  O88  1  0.24100000  0.91570000  0.36415000  1.0
  O2-  O89  1  0.23980295  0.91592138  0.87062957  1.0
  O2-  O90  1  0.74100000  0.91570000  0.36415000  1.0
  O2-  O91  1  0.74100000  0.91570000  0.86415000  1.0
  O2-  O92  1  0.16900000  0.58430000  0.38585000  1.0
  O2-  O93  1  0.16900000  0.58430000  0.88585000  1.0
  O2-  O94  1  0.66900000  0.58430000  0.38585000  1.0
  O2-  O95  1  0.66900000  0.58430000  0.88585000  1.0
  O2-  O96  1  0.05190000  0.95400000  0.65890000  1.0
  O2-  O97  1  0.05190000  0.95400000  0.15890000  1.0
  O2-  O98  1  0.55190000  0.95400000  0.65890000  1.0
  O2-  O99  1  0.55190000  0.95400000  0.15890000  1.0
  O2-  O100  1  0.16925088  0.54413647  0.58855870  1.0
  O2-  O101  1  0.16600000  0.54600000  0.09110000  1.0
  O2-  O102  1  0.66422342  0.55390241  0.59194607  1.0
  O2-  O103  1  0.66593908  0.54412454  0.09376890  1.0
  O2-  O104  1  0.44428419  0.04399284  0.33569054  1.0
  O2-  O105  1  0.44810000  0.04600000  0.84110000  1.0
  O2-  O106  1  0.94810000  0.04600000  0.34110000  1.0
  O2-  O107  1  0.94810000  0.04600000  0.84110000  1.0
  O2-  O108  1  0.33400000  0.45400000  0.40890000  1.0
  O2-  O109  1  0.33400000  0.45400000  0.90890000  1.0
  O2-  O110  1  0.83400000  0.45400000  0.40890000  1.0
  O2-  O111  1  0.83400000  0.45400000  0.90890000  1.0
  O2-  O112  1  0.24275000  0.77210000  0.73485000  1.0
  O2-  O113  1  0.24275000  0.77210000  0.23485000  1.0
  O2-  O114  1  0.74275000  0.77210000  0.73485000  1.0
  O2-  O115  1  0.74275000  0.77210000  0.23485000  1.0
  O2-  O116  1  0.37185000  0.72790000  0.51515000  1.0
  O2-  O117  1  0.37185000  0.72790000  0.01515000  1.0
  O2-  O118  1  0.87185000  0.72790000  0.51515000  1.0
  O2-  O119  1  0.87185000  0.72790000  0.01515000  1.0
  O2-  O120  1  0.25725000  0.22790000  0.26515000  1.0
  O2-  O121  1  0.25725000  0.22790000  0.76515000  1.0
  O2-  O122  1  0.75725000  0.22790000  0.26515000  1.0
  O2-  O123  1  0.75815839  0.23071673  0.75850851  1.0
  O2-  O124  1  0.12689571  0.27560327  0.48232369  1.0
  O2-  O125  1  0.12636452  0.27853074  0.98580888  1.0
  O2-  O126  1  0.62815000  0.27210000  0.48485000  1.0
  O2-  O127  1  0.63028398  0.27362514  0.98303779  1.0
  O2-  O128  1  0.46855000  0.79740000  0.28600000  1.0
  O2-  O129  1  0.46855000  0.79740000  0.78600000  1.0
  O2-  O130  1  0.96946441  0.79810318  0.28781887  1.0
  O2-  O131  1  0.96263098  0.79304372  0.78634883  1.0
  O2-  O132  1  0.03103727  0.70450044  0.45896010  1.0
  O2-  O133  1  0.03385000  0.70260000  0.96400000  1.0
  O2-  O134  1  0.53385000  0.70260000  0.46400000  1.0
  O2-  O135  1  0.53385000  0.70260000  0.96400000  1.0
  O2-  O136  1  0.03145000  0.20260000  0.71400000  1.0
  O2-  O137  1  0.03231378  0.20242753  0.21540662  1.0
  O2-  O138  1  0.53145000  0.20260000  0.71400000  1.0
  O2-  O139  1  0.53289161  0.20133084  0.21361739  1.0
  O2-  O140  1  0.46615000  0.29740000  0.53600000  1.0
  O2-  O141  1  0.46851813  0.29847004  0.04021300  1.0
  O2-  O142  1  0.96615000  0.29740000  0.53600000  1.0
  O2-  O143  1  0.96743412  0.29941637  0.03639016  1.0
