# generated using pymatgen
data_LiGd(PO3)4
_symmetry_space_group_name_H-M   'P 1'
_cell_length_a   17.89655783
_cell_length_b   14.16131476
_cell_length_c   8.95796172
_cell_angle_alpha   113.27943838
_cell_angle_beta   114.34876570
_cell_angle_gamma   66.69388436
_symmetry_Int_Tables_number   1
_chemical_formula_structural   LiGd(PO3)4
_chemical_formula_sum   'Li8 Gd8 P32 O96'
_cell_volume   1825.04425457
_cell_formula_units_Z   8
loop_
 _symmetry_equiv_pos_site_id
 _symmetry_equiv_pos_as_xyz
  1  'x, y, z'
loop_
 _atom_type_symbol
 _atom_type_oxidation_number
  Li+  1.0
  Gd3+  3.0
  P5+  5.0
  O2-  -2.0
loop_
 _atom_site_type_symbol
 _atom_site_label
 _atom_site_symmetry_multiplicity
 _atom_site_fract_x
 _atom_site_fract_y
 _atom_site_fract_z
 _atom_site_occupancy
  Li+  Li0  1  0.87500000  0.26806667  0.75000000  1.0
  Li+  Li1  1  0.37500000  0.26806667  0.75000000  1.0
  Li+  Li2  1  0.87500000  0.76806667  0.75000000  1.0
  Li+  Li3  1  0.37500000  0.76806667  0.75000000  1.0
  Li+  Li4  1  0.62500000  0.56526667  0.25000000  1.0
  Li+  Li5  1  0.12500000  0.56526667  0.25000000  1.0
  Li+  Li6  1  0.62500000  0.06526667  0.25000000  1.0
  Li+  Li7  1  0.12500000  0.06526667  0.25000000  1.0
  Gd3+  Gd8  1  0.87500000  0.51769667  0.75000000  1.0
  Gd3+  Gd9  1  0.37500000  0.51769667  0.75000000  1.0
  Gd3+  Gd10  1  0.87500000  0.01769667  0.75000000  1.0
  Gd3+  Gd11  1  0.37500000  0.01769667  0.75000000  1.0
  Gd3+  Gd12  1  0.62500000  0.31563667  0.25000000  1.0
  Gd3+  Gd13  1  0.12500000  0.31563667  0.25000000  1.0
  Gd3+  Gd14  1  0.62500000  0.81563667  0.25000000  1.0
  Gd3+  Gd15  1  0.12500000  0.81563667  0.25000000  1.0
  P5+  P16  1  0.94285500  0.20879667  0.16155000  1.0
  P5+  P17  1  0.44285500  0.20879667  0.16155000  1.0
  P5+  P18  1  0.94285500  0.70879667  0.16155000  1.0
  P5+  P19  1  0.44285500  0.70879667  0.16155000  1.0
  P5+  P20  1  0.80714500  0.57087667  0.33845000  1.0
  P5+  P21  1  0.30714500  0.57087667  0.33845000  1.0
  P5+  P22  1  0.80714500  0.07087667  0.33845000  1.0
  P5+  P23  1  0.30714500  0.07087667  0.33845000  1.0
  P5+  P24  1  0.55714500  0.62453667  0.83845000  1.0
  P5+  P25  1  0.05714500  0.62453667  0.83845000  1.0
  P5+  P26  1  0.55714500  0.12453667  0.83845000  1.0
  P5+  P27  1  0.05714500  0.12453667  0.83845000  1.0
  P5+  P28  1  0.69285500  0.26245667  0.66155000  1.0
  P5+  P29  1  0.19285500  0.26245667  0.66155000  1.0
  P5+  P30  1  0.69285500  0.76245667  0.66155000  1.0
  P5+  P31  1  0.19285500  0.76245667  0.66155000  1.0
  P5+  P32  1  0.90088000  0.41390667  0.09672000  1.0
  P5+  P33  1  0.40088000  0.41390667  0.09672000  1.0
  P5+  P34  1  0.90088000  0.91390667  0.09672000  1.0
  P5+  P35  1  0.40088000  0.91390667  0.09672000  1.0
  P5+  P36  1  0.84912000  0.26642667  0.40328000  1.0
  P5+  P37  1  0.34912000  0.26642667  0.40328000  1.0
  P5+  P38  1  0.84912000  0.76642667  0.40328000  1.0
  P5+  P39  1  0.34912000  0.76642667  0.40328000  1.0
  P5+  P40  1  0.59912000  0.41942667  0.90328000  1.0
  P5+  P41  1  0.09912000  0.41942667  0.90328000  1.0
  P5+  P42  1  0.59912000  0.91942667  0.90328000  1.0
  P5+  P43  1  0.09912000  0.91942667  0.90328000  1.0
  P5+  P44  1  0.65088000  0.56690667  0.59672000  1.0
  P5+  P45  1  0.15088000  0.56690667  0.59672000  1.0
  P5+  P46  1  0.65088000  0.06690667  0.59672000  1.0
  P5+  P47  1  0.15088000  0.06690667  0.59672000  1.0
  O2-  O48  1  0.88350000  0.30761667  0.08400000  1.0
  O2-  O49  1  0.38350000  0.30761667  0.08400000  1.0
  O2-  O50  1  0.88350000  0.80761667  0.08400000  1.0
  O2-  O51  1  0.38350000  0.80761667  0.08400000  1.0
  O2-  O52  1  0.86650000  0.64911667  0.41600000  1.0
  O2-  O53  1  0.36650000  0.64911667  0.41600000  1.0
  O2-  O54  1  0.86650000  0.14911667  0.41600000  1.0
  O2-  O55  1  0.36650000  0.14911667  0.41600000  1.0
  O2-  O56  1  0.61650000  0.52571667  0.91600000  1.0
  O2-  O57  1  0.11650000  0.52571667  0.91600000  1.0
  O2-  O58  1  0.61650000  0.02571667  0.91600000  1.0
  O2-  O59  1  0.11650000  0.02571667  0.91600000  1.0
  O2-  O60  1  0.63350000  0.18421667  0.58400000  1.0
  O2-  O61  1  0.13350000  0.18421667  0.58400000  1.0
  O2-  O62  1  0.63350000  0.68421667  0.58400000  1.0
  O2-  O63  1  0.13350000  0.68421667  0.58400000  1.0
  O2-  O64  1  0.92710000  0.24811667  0.34300000  1.0
  O2-  O65  1  0.42710000  0.24811667  0.34300000  1.0
  O2-  O66  1  0.92710000  0.74811667  0.34300000  1.0
  O2-  O67  1  0.42710000  0.74811667  0.34300000  1.0
  O2-  O68  1  0.82290000  0.50371667  0.15700000  1.0
  O2-  O69  1  0.32290000  0.50371667  0.15700000  1.0
  O2-  O70  1  0.82290000  0.00371667  0.15700000  1.0
  O2-  O71  1  0.32290000  0.00371667  0.15700000  1.0
  O2-  O72  1  0.57290000  0.58521667  0.65700000  1.0
  O2-  O73  1  0.07290000  0.58521667  0.65700000  1.0
  O2-  O74  1  0.57290000  0.08521667  0.65700000  1.0
  O2-  O75  1  0.07290000  0.08521667  0.65700000  1.0
  O2-  O76  1  0.67710000  0.32961667  0.84300000  1.0
  O2-  O77  1  0.17710000  0.32961667  0.84300000  1.0
  O2-  O78  1  0.67710000  0.82961667  0.84300000  1.0
  O2-  O79  1  0.17710000  0.82961667  0.84300000  1.0
  O2-  O80  1  0.88585000  0.40766667  0.91570000  1.0
  O2-  O81  1  0.38585000  0.40766667  0.91570000  1.0
  O2-  O82  1  0.88585000  0.90766667  0.91570000  1.0
  O2-  O83  1  0.38585000  0.90766667  0.91570000  1.0
  O2-  O84  1  0.86415000  0.33566667  0.58430000  1.0
  O2-  O85  1  0.36415000  0.33566667  0.58430000  1.0
  O2-  O86  1  0.86415000  0.83566667  0.58430000  1.0
  O2-  O87  1  0.36415000  0.83566667  0.58430000  1.0
  O2-  O88  1  0.61415000  0.42566667  0.08430000  1.0
  O2-  O89  1  0.11415000  0.42566667  0.08430000  1.0
  O2-  O90  1  0.61415000  0.92566667  0.08430000  1.0
  O2-  O91  1  0.11415000  0.92566667  0.08430000  1.0
  O2-  O92  1  0.63585000  0.49766667  0.41570000  1.0
  O2-  O93  1  0.13585000  0.49766667  0.41570000  1.0
  O2-  O94  1  0.63585000  0.99766667  0.41570000  1.0
  O2-  O95  1  0.13585000  0.99766667  0.41570000  1.0
  O2-  O96  1  0.90890000  0.61476667  0.04600000  1.0
  O2-  O97  1  0.40890000  0.61476667  0.04600000  1.0
  O2-  O98  1  0.90890000  0.11476667  0.04600000  1.0
  O2-  O99  1  0.40890000  0.11476667  0.04600000  1.0
  O2-  O100  1  0.84110000  0.50066667  0.45400000  1.0
  O2-  O101  1  0.34110000  0.50066667  0.45400000  1.0
  O2-  O102  1  0.84110000  0.00066667  0.45400000  1.0
  O2-  O103  1  0.34110000  0.00066667  0.45400000  1.0
  O2-  O104  1  0.59110000  0.21856667  0.95400000  1.0
  O2-  O105  1  0.09110000  0.21856667  0.95400000  1.0
  O2-  O106  1  0.59110000  0.71856667  0.95400000  1.0
  O2-  O107  1  0.09110000  0.71856667  0.95400000  1.0
  O2-  O108  1  0.65890000  0.33266667  0.54600000  1.0
  O2-  O109  1  0.15890000  0.33266667  0.54600000  1.0
  O2-  O110  1  0.65890000  0.83266667  0.54600000  1.0
  O2-  O111  1  0.15890000  0.83266667  0.54600000  1.0
  O2-  O112  1  0.98485000  0.42391667  0.22790000  1.0
  O2-  O113  1  0.48485000  0.42391667  0.22790000  1.0
  O2-  O114  1  0.98485000  0.92391667  0.22790000  1.0
  O2-  O115  1  0.48485000  0.92391667  0.22790000  1.0
  O2-  O116  1  0.76515000  0.29481667  0.27210000  1.0
  O2-  O117  1  0.26515000  0.29481667  0.27210000  1.0
  O2-  O118  1  0.76515000  0.79481667  0.27210000  1.0
  O2-  O119  1  0.26515000  0.79481667  0.27210000  1.0
  O2-  O120  1  0.51515000  0.40941667  0.77210000  1.0
  O2-  O121  1  0.01515000  0.40941667  0.77210000  1.0
  O2-  O122  1  0.51515000  0.90941667  0.77210000  1.0
  O2-  O123  1  0.01515000  0.90941667  0.77210000  1.0
  O2-  O124  1  0.73485000  0.53851667  0.72790000  1.0
  O2-  O125  1  0.23485000  0.53851667  0.72790000  1.0
  O2-  O126  1  0.73485000  0.03851667  0.72790000  1.0
  O2-  O127  1  0.23485000  0.03851667  0.72790000  1.0
  O2-  O128  1  0.53600000  0.19811667  0.20260000  1.0
  O2-  O129  1  0.03600000  0.19811667  0.20260000  1.0
  O2-  O130  1  0.53600000  0.69811667  0.20260000  1.0
  O2-  O131  1  0.03600000  0.69811667  0.20260000  1.0
  O2-  O132  1  0.71400000  0.63281667  0.29740000  1.0
  O2-  O133  1  0.21400000  0.63281667  0.29740000  1.0
  O2-  O134  1  0.71400000  0.13281667  0.29740000  1.0
  O2-  O135  1  0.21400000  0.13281667  0.29740000  1.0
  O2-  O136  1  0.96400000  0.63521667  0.79740000  1.0
  O2-  O137  1  0.46400000  0.63521667  0.79740000  1.0
  O2-  O138  1  0.96400000  0.13521667  0.79740000  1.0
  O2-  O139  1  0.46400000  0.13521667  0.79740000  1.0
  O2-  O140  1  0.78600000  0.20051667  0.70260000  1.0
  O2-  O141  1  0.28600000  0.20051667  0.70260000  1.0
  O2-  O142  1  0.78600000  0.70051667  0.70260000  1.0
  O2-  O143  1  0.28600000  0.70051667  0.70260000  1.0
