# generated using pymatgen
data_LiGd(PO3)4
_symmetry_space_group_name_H-M   'P 1'
_cell_length_a   14.11800000
_cell_length_b   17.84181820
_cell_length_c   8.93056229
_cell_angle_alpha   65.65123430
_cell_angle_beta   66.72056162
_cell_angle_gamma   66.69388436
_symmetry_Int_Tables_number   1
_chemical_formula_structural   LiGd(PO3)4
_chemical_formula_sum   'Li8 Gd8 P32 O96'
_cell_volume   1808.34881139
_cell_formula_units_Z   8
loop_
 _symmetry_equiv_pos_site_id
 _symmetry_equiv_pos_as_xyz
  1  'x, y, z'
loop_
 _atom_type_symbol
 _atom_type_oxidation_number
  Li+  1.0
  Gd3+  3.0
  P5+  5.0
  O2-  -2.0
loop_
 _atom_site_type_symbol
 _atom_site_label
 _atom_site_symmetry_multiplicity
 _atom_site_fract_x
 _atom_site_fract_y
 _atom_site_fract_z
 _atom_site_occupancy
  Li+  Li1  1  0.39860000  0.12500000  0.75000000  1.0
  Li+  Li1  1  0.39860000  0.62500000  0.75000000  1.0
  Li+  Li1  1  0.89860000  0.12500000  0.75000000  1.0
  Li+  Li1  1  0.89860000  0.62500000  0.75000000  1.0
  Li+  Li1  1  0.10140000  0.37500000  0.25000000  1.0
  Li+  Li1  1  0.10140000  0.87500000  0.25000000  1.0
  Li+  Li1  1  0.60140000  0.37500000  0.25000000  1.0
  Li+  Li1  1  0.60140000  0.87500000  0.25000000  1.0
  Gd3+  Gd1  1  0.14897000  0.12500000  0.75000000  1.0
  Gd3+  Gd1  1  0.14897000  0.62500000  0.75000000  1.0
  Gd3+  Gd1  1  0.64897000  0.12500000  0.75000000  1.0
  Gd3+  Gd1  1  0.64897000  0.62500000  0.75000000  1.0
  Gd3+  Gd1  1  0.35103000  0.37500000  0.25000000  1.0
  Gd3+  Gd1  1  0.35103000  0.87500000  0.25000000  1.0
  Gd3+  Gd1  1  0.85103000  0.37500000  0.25000000  1.0
  Gd3+  Gd1  1  0.85103000  0.87500000  0.25000000  1.0
  P5+  P1  1  0.45787000  0.05714500  0.16155000  1.0
  P5+  P1  1  0.45787000  0.55714500  0.16155000  1.0
  P5+  P1  1  0.95787000  0.05714500  0.16155000  1.0
  P5+  P1  1  0.95787000  0.55714500  0.16155000  1.0
  P5+  P1  1  0.09579000  0.19285500  0.33845000  1.0
  P5+  P1  1  0.09579000  0.69285500  0.33845000  1.0
  P5+  P1  1  0.59579000  0.19285500  0.33845000  1.0
  P5+  P1  1  0.59579000  0.69285500  0.33845000  1.0
  P5+  P1  1  0.04213000  0.44285500  0.83845000  1.0
  P5+  P1  1  0.04213000  0.94285500  0.83845000  1.0
  P5+  P1  1  0.54213000  0.44285500  0.83845000  1.0
  P5+  P1  1  0.54213000  0.94285500  0.83845000  1.0
  P5+  P1  1  0.40421000  0.30714500  0.66155000  1.0
  P5+  P1  1  0.40421000  0.80714500  0.66155000  1.0
  P5+  P1  1  0.90421000  0.30714500  0.66155000  1.0
  P5+  P1  1  0.90421000  0.80714500  0.66155000  1.0
  P5+  P2  1  0.25276000  0.09912000  0.09672000  1.0
  P5+  P2  1  0.25276000  0.59912000  0.09672000  1.0
  P5+  P2  1  0.75276000  0.09912000  0.09672000  1.0
  P5+  P2  1  0.75276000  0.59912000  0.09672000  1.0
  P5+  P2  1  0.40024000  0.15088000  0.40328000  1.0
  P5+  P2  1  0.40024000  0.65088000  0.40328000  1.0
  P5+  P2  1  0.90024000  0.15088000  0.40328000  1.0
  P5+  P2  1  0.90024000  0.65088000  0.40328000  1.0
  P5+  P2  1  0.24724000  0.40088000  0.90328000  1.0
  P5+  P2  1  0.24724000  0.90088000  0.90328000  1.0
  P5+  P2  1  0.74724000  0.40088000  0.90328000  1.0
  P5+  P2  1  0.74724000  0.90088000  0.90328000  1.0
  P5+  P2  1  0.09976000  0.34912000  0.59672000  1.0
  P5+  P2  1  0.09976000  0.84912000  0.59672000  1.0
  P5+  P2  1  0.59976000  0.34912000  0.59672000  1.0
  P5+  P2  1  0.59976000  0.84912000  0.59672000  1.0
  O2-  O1  1  0.35905000  0.11650000  0.08400000  1.0
  O2-  O1  1  0.35905000  0.61650000  0.08400000  1.0
  O2-  O1  1  0.85905000  0.11650000  0.08400000  1.0
  O2-  O1  1  0.85905000  0.61650000  0.08400000  1.0
  O2-  O1  1  0.01755000  0.13350000  0.41600000  1.0
  O2-  O1  1  0.01755000  0.63350000  0.41600000  1.0
  O2-  O1  1  0.51755000  0.13350000  0.41600000  1.0
  O2-  O1  1  0.51755000  0.63350000  0.41600000  1.0
  O2-  O1  1  0.14095000  0.38350000  0.91600000  1.0
  O2-  O1  1  0.14095000  0.88350000  0.91600000  1.0
  O2-  O1  1  0.64095000  0.38350000  0.91600000  1.0
  O2-  O1  1  0.64095000  0.88350000  0.91600000  1.0
  O2-  O1  1  0.48245000  0.36650000  0.58400000  1.0
  O2-  O1  1  0.48245000  0.86650000  0.58400000  1.0
  O2-  O1  1  0.98245000  0.36650000  0.58400000  1.0
  O2-  O1  1  0.98245000  0.86650000  0.58400000  1.0
  O2-  O2  1  0.41855000  0.07290000  0.34300000  1.0
  O2-  O2  1  0.41855000  0.57290000  0.34300000  1.0
  O2-  O2  1  0.91855000  0.07290000  0.34300000  1.0
  O2-  O2  1  0.91855000  0.57290000  0.34300000  1.0
  O2-  O2  1  0.16295000  0.17710000  0.15700000  1.0
  O2-  O2  1  0.16295000  0.67710000  0.15700000  1.0
  O2-  O2  1  0.66295000  0.17710000  0.15700000  1.0
  O2-  O2  1  0.66295000  0.67710000  0.15700000  1.0
  O2-  O2  1  0.08145000  0.42710000  0.65700000  1.0
  O2-  O2  1  0.08145000  0.92710000  0.65700000  1.0
  O2-  O2  1  0.58145000  0.42710000  0.65700000  1.0
  O2-  O2  1  0.58145000  0.92710000  0.65700000  1.0
  O2-  O2  1  0.33705000  0.32290000  0.84300000  1.0
  O2-  O2  1  0.33705000  0.82290000  0.84300000  1.0
  O2-  O2  1  0.83705000  0.32290000  0.84300000  1.0
  O2-  O2  1  0.83705000  0.82290000  0.84300000  1.0
  O2-  O3  1  0.25900000  0.11415000  0.91570000  1.0
  O2-  O3  1  0.25900000  0.61415000  0.91570000  1.0
  O2-  O3  1  0.75900000  0.11415000  0.91570000  1.0
  O2-  O3  1  0.75900000  0.61415000  0.91570000  1.0
  O2-  O3  1  0.33100000  0.13585000  0.58430000  1.0
  O2-  O3  1  0.33100000  0.63585000  0.58430000  1.0
  O2-  O3  1  0.83100000  0.13585000  0.58430000  1.0
  O2-  O3  1  0.83100000  0.63585000  0.58430000  1.0
  O2-  O3  1  0.24100000  0.38585000  0.08430000  1.0
  O2-  O3  1  0.24100000  0.88585000  0.08430000  1.0
  O2-  O3  1  0.74100000  0.38585000  0.08430000  1.0
  O2-  O3  1  0.74100000  0.88585000  0.08430000  1.0
  O2-  O3  1  0.16900000  0.36415000  0.41570000  1.0
  O2-  O3  1  0.16900000  0.86415000  0.41570000  1.0
  O2-  O3  1  0.66900000  0.36415000  0.41570000  1.0
  O2-  O3  1  0.66900000  0.86415000  0.41570000  1.0
  O2-  O4  1  0.05190000  0.09110000  0.04600000  1.0
  O2-  O4  1  0.05190000  0.59110000  0.04600000  1.0
  O2-  O4  1  0.55190000  0.09110000  0.04600000  1.0
  O2-  O4  1  0.55190000  0.59110000  0.04600000  1.0
  O2-  O4  1  0.16600000  0.15890000  0.45400000  1.0
  O2-  O4  1  0.16600000  0.65890000  0.45400000  1.0
  O2-  O4  1  0.66600000  0.15890000  0.45400000  1.0
  O2-  O4  1  0.66600000  0.65890000  0.45400000  1.0
  O2-  O4  1  0.44810000  0.40890000  0.95400000  1.0
  O2-  O4  1  0.44810000  0.90890000  0.95400000  1.0
  O2-  O4  1  0.94810000  0.40890000  0.95400000  1.0
  O2-  O4  1  0.94810000  0.90890000  0.95400000  1.0
  O2-  O4  1  0.33400000  0.34110000  0.54600000  1.0
  O2-  O4  1  0.33400000  0.84110000  0.54600000  1.0
  O2-  O4  1  0.83400000  0.34110000  0.54600000  1.0
  O2-  O4  1  0.83400000  0.84110000  0.54600000  1.0
  O2-  O5  1  0.24275000  0.01515000  0.22790000  1.0
  O2-  O5  1  0.24275000  0.51515000  0.22790000  1.0
  O2-  O5  1  0.74275000  0.01515000  0.22790000  1.0
  O2-  O5  1  0.74275000  0.51515000  0.22790000  1.0
  O2-  O5  1  0.37185000  0.23485000  0.27210000  1.0
  O2-  O5  1  0.37185000  0.73485000  0.27210000  1.0
  O2-  O5  1  0.87185000  0.23485000  0.27210000  1.0
  O2-  O5  1  0.87185000  0.73485000  0.27210000  1.0
  O2-  O5  1  0.25725000  0.48485000  0.77210000  1.0
  O2-  O5  1  0.25725000  0.98485000  0.77210000  1.0
  O2-  O5  1  0.75725000  0.48485000  0.77210000  1.0
  O2-  O5  1  0.75725000  0.98485000  0.77210000  1.0
  O2-  O5  1  0.12815000  0.26515000  0.72790000  1.0
  O2-  O5  1  0.12815000  0.76515000  0.72790000  1.0
  O2-  O5  1  0.62815000  0.26515000  0.72790000  1.0
  O2-  O5  1  0.62815000  0.76515000  0.72790000  1.0
  O2-  O6  1  0.46855000  0.46400000  0.20260000  1.0
  O2-  O6  1  0.46855000  0.96400000  0.20260000  1.0
  O2-  O6  1  0.96855000  0.46400000  0.20260000  1.0
  O2-  O6  1  0.96855000  0.96400000  0.20260000  1.0
  O2-  O6  1  0.03385000  0.28600000  0.29740000  1.0
  O2-  O6  1  0.03385000  0.78600000  0.29740000  1.0
  O2-  O6  1  0.53385000  0.28600000  0.29740000  1.0
  O2-  O6  1  0.53385000  0.78600000  0.29740000  1.0
  O2-  O6  1  0.03145000  0.03600000  0.79740000  1.0
  O2-  O6  1  0.03145000  0.53600000  0.79740000  1.0
  O2-  O6  1  0.53145000  0.03600000  0.79740000  1.0
  O2-  O6  1  0.53145000  0.53600000  0.79740000  1.0
  O2-  O6  1  0.46615000  0.21400000  0.70260000  1.0
  O2-  O6  1  0.46615000  0.71400000  0.70260000  1.0
  O2-  O6  1  0.96615000  0.21400000  0.70260000  1.0
  O2-  O6  1  0.96615000  0.71400000  0.70260000  1.0
