# generated using pymatgen
data_LiY(BH4)4
_symmetry_space_group_name_H-M   'P 1'
_cell_length_a   12.47200000
_cell_length_b   12.49100000
_cell_length_c   12.47200000
_cell_angle_alpha   90.00000000
_cell_angle_beta   90.00000000
_cell_angle_gamma   90.00000000
_symmetry_Int_Tables_number   1
_chemical_formula_structural   LiY(BH4)4
_chemical_formula_sum   'Li8 Y8 B32 H128'
_cell_volume   1942.98484294
_cell_formula_units_Z   8
loop_
 _symmetry_equiv_pos_site_id
 _symmetry_equiv_pos_as_xyz
  1  'x, y, z'
loop_
 _atom_type_symbol
 _atom_type_oxidation_number
  Li+  1.0
  Y3+  3.0
  B3+  3.0
  H-  -1.0
loop_
 _atom_site_type_symbol
 _atom_site_label
 _atom_site_symmetry_multiplicity
 _atom_site_fract_x
 _atom_site_fract_y
 _atom_site_fract_z
 _atom_site_occupancy
  Li+  Li0  1  0.00035841  0.75112594  0.74923070  1.0
  Li+  Li1  1  0.00000000  0.75000000  0.25000000  1.0
  Li+  Li2  1  0.00000000  0.25000000  0.75000000  1.0
  Li+  Li3  1  0.00243584  0.24934622  0.25129972  1.0
  Li+  Li4  1  0.50000000  0.75000000  0.75000000  1.0
  Li+  Li5  1  0.50000000  0.75000000  0.25000000  1.0
  Li+  Li6  1  0.49969003  0.25080453  0.74919998  1.0
  Li+  Li7  1  0.50000000  0.25000000  0.25000000  1.0
  Y3+  Y8  1  0.25000000  0.75000000  0.50000000  1.0
  Y3+  Y9  1  0.25000000  0.75000000  0.00000000  1.0
  Y3+  Y10  1  0.25000000  0.25000000  0.50000000  1.0
  Y3+  Y11  1  0.25000000  0.25000000  0.00000000  1.0
  Y3+  Y12  1  0.75000000  0.75000000  0.50000000  1.0
  Y3+  Y13  1  0.75000000  0.75000000  0.00000000  1.0
  Y3+  Y14  1  0.75328441  0.25029522  0.50084106  1.0
  Y3+  Y15  1  0.75000000  0.25000000  0.00000000  1.0
  B3+  B16  1  0.37198799  0.84451301  0.38140148  1.0
  B3+  B17  1  0.37265000  0.84650000  0.87735000  1.0
  B3+  B18  1  0.37265000  0.34650000  0.37735000  1.0
  B3+  B19  1  0.37265000  0.34650000  0.87735000  1.0
  B3+  B20  1  0.87265000  0.84650000  0.37735000  1.0
  B3+  B21  1  0.87265000  0.84650000  0.87735000  1.0
  B3+  B22  1  0.87265000  0.34650000  0.37735000  1.0
  B3+  B23  1  0.87265000  0.34650000  0.87735000  1.0
  B3+  B24  1  0.12735000  0.84650000  0.62265000  1.0
  B3+  B25  1  0.12675676  0.84918628  0.12147893  1.0
  B3+  B26  1  0.12705789  0.34716740  0.62073842  1.0
  B3+  B27  1  0.12735000  0.34650000  0.12265000  1.0
  B3+  B28  1  0.62735000  0.84650000  0.62265000  1.0
  B3+  B29  1  0.62735000  0.84650000  0.12265000  1.0
  B3+  B30  1  0.63161731  0.34420091  0.62439670  1.0
  B3+  B31  1  0.62735000  0.34650000  0.12265000  1.0
  B3+  B32  1  0.37265000  0.65350000  0.62265000  1.0
  B3+  B33  1  0.37265000  0.65350000  0.12265000  1.0
  B3+  B34  1  0.37265000  0.15350000  0.62265000  1.0
  B3+  B35  1  0.37265000  0.15350000  0.12265000  1.0
  B3+  B36  1  0.87265000  0.65350000  0.62265000  1.0
  B3+  B37  1  0.87265000  0.65350000  0.12265000  1.0
  B3+  B38  1  0.87411476  0.15223667  0.62260203  1.0
  B3+  B39  1  0.87158125  0.15612049  0.12337842  1.0
  B3+  B40  1  0.12735000  0.65350000  0.37735000  1.0
  B3+  B41  1  0.13063614  0.65271495  0.87729767  1.0
  B3+  B42  1  0.12735000  0.15350000  0.37735000  1.0
  B3+  B43  1  0.12735000  0.15350000  0.87735000  1.0
  B3+  B44  1  0.62172121  0.65493101  0.37951219  1.0
  B3+  B45  1  0.62735000  0.65350000  0.87735000  1.0
  B3+  B46  1  0.62773321  0.15725866  0.37468578  1.0
  B3+  B47  1  0.62735000  0.15350000  0.87735000  1.0
  H-  H48  1  0.38369384  0.74619153  0.37055764  1.0
  H-  H49  1  0.38095000  0.74730000  0.86905000  1.0
  H-  H50  1  0.38095000  0.24730000  0.36905000  1.0
  H-  H51  1  0.38095000  0.24730000  0.86905000  1.0
  H-  H52  1  0.88095000  0.74730000  0.36905000  1.0
  H-  H53  1  0.88095000  0.74730000  0.86905000  1.0
  H-  H54  1  0.88095000  0.24730000  0.36905000  1.0
  H-  H55  1  0.88095000  0.24730000  0.86905000  1.0
  H-  H56  1  0.11905000  0.74730000  0.63095000  1.0
  H-  H57  1  0.11905000  0.74730000  0.13095000  1.0
  H-  H58  1  0.12457638  0.24920809  0.62965908  1.0
  H-  H59  1  0.12240694  0.24661950  0.13286270  1.0
  H-  H60  1  0.61905000  0.74730000  0.63095000  1.0
  H-  H61  1  0.61661174  0.74638570  0.12885443  1.0
  H-  H62  1  0.61905000  0.24730000  0.63095000  1.0
  H-  H63  1  0.61905000  0.24730000  0.13095000  1.0
  H-  H64  1  0.38095000  0.75270000  0.63095000  1.0
  H-  H65  1  0.38095000  0.75270000  0.13095000  1.0
  H-  H66  1  0.38095000  0.25270000  0.63095000  1.0
  H-  H67  1  0.38368861  0.25307679  0.13374138  1.0
  H-  H68  1  0.88195450  0.75228979  0.63133630  1.0
  H-  H69  1  0.88095000  0.75270000  0.13095000  1.0
  H-  H70  1  0.88095000  0.25270000  0.63095000  1.0
  H-  H71  1  0.88024752  0.25290918  0.13463996  1.0
  H-  H72  1  0.11905000  0.75270000  0.36905000  1.0
  H-  H73  1  0.11905000  0.75270000  0.86905000  1.0
  H-  H74  1  0.11905000  0.25270000  0.36905000  1.0
  H-  H75  1  0.12258509  0.25466781  0.87372410  1.0
  H-  H76  1  0.61905000  0.75270000  0.36905000  1.0
  H-  H77  1  0.61905000  0.75270000  0.86905000  1.0
  H-  H78  1  0.61349791  0.25282887  0.36880546  1.0
  H-  H79  1  0.61905000  0.25270000  0.86905000  1.0
  H-  H80  1  0.43225000  0.89370000  0.31775000  1.0
  H-  H81  1  0.43225000  0.89370000  0.81775000  1.0
  H-  H82  1  0.43225000  0.39370000  0.31775000  1.0
  H-  H83  1  0.43529735  0.39274059  0.82120364  1.0
  H-  H84  1  0.93155454  0.89048132  0.32081151  1.0
  H-  H85  1  0.92965936  0.89531011  0.82180683  1.0
  H-  H86  1  0.93225000  0.39370000  0.31775000  1.0
  H-  H87  1  0.93225000  0.39370000  0.81775000  1.0
  H-  H88  1  0.06775000  0.89370000  0.68225000  1.0
  H-  H89  1  0.06775000  0.89370000  0.18225000  1.0
  H-  H90  1  0.06626443  0.39279726  0.68016489  1.0
  H-  H91  1  0.06775000  0.39370000  0.18225000  1.0
  H-  H92  1  0.56775000  0.89370000  0.68225000  1.0
  H-  H93  1  0.56775000  0.89370000  0.18225000  1.0
  H-  H94  1  0.56569769  0.39125371  0.68240142  1.0
  H-  H95  1  0.56775000  0.39370000  0.18225000  1.0
  H-  H96  1  0.43225000  0.60630000  0.68225000  1.0
  H-  H97  1  0.43225000  0.60630000  0.18225000  1.0
  H-  H98  1  0.43225000  0.10630000  0.68225000  1.0
  H-  H99  1  0.43225000  0.10630000  0.18225000  1.0
  H-  H100  1  0.93225000  0.60630000  0.68225000  1.0
  H-  H101  1  0.93219589  0.60780912  0.17866975  1.0
  H-  H102  1  0.93225000  0.10630000  0.68225000  1.0
  H-  H103  1  0.93225000  0.10630000  0.18225000  1.0
  H-  H104  1  0.06775000  0.60630000  0.31775000  1.0
  H-  H105  1  0.06775000  0.60630000  0.81775000  1.0
  H-  H106  1  0.06775000  0.10630000  0.31775000  1.0
  H-  H107  1  0.06775000  0.10630000  0.81775000  1.0
  H-  H108  1  0.56775000  0.60630000  0.31775000  1.0
  H-  H109  1  0.56775000  0.60630000  0.81775000  1.0
  H-  H110  1  0.56775000  0.10630000  0.31775000  1.0
  H-  H111  1  0.56775000  0.10630000  0.81775000  1.0
  H-  H112  1  0.39180000  0.86810000  0.47180000  1.0
  H-  H113  1  0.39397245  0.86671626  0.97178004  1.0
  H-  H114  1  0.39180000  0.36810000  0.47180000  1.0
  H-  H115  1  0.39180000  0.36810000  0.97180000  1.0
  H-  H116  1  0.89180000  0.86810000  0.47180000  1.0
  H-  H117  1  0.89180000  0.86810000  0.97180000  1.0
  H-  H118  1  0.89180000  0.36810000  0.47180000  1.0
  H-  H119  1  0.89412670  0.36785081  0.97276270  1.0
  H-  H120  1  0.10820000  0.86810000  0.52820000  1.0
  H-  H121  1  0.10820000  0.86810000  0.02820000  1.0
  H-  H122  1  0.10820000  0.36810000  0.52820000  1.0
  H-  H123  1  0.10893582  0.37296552  0.02719644  1.0
  H-  H124  1  0.60820000  0.86810000  0.52820000  1.0
  H-  H125  1  0.60820000  0.86810000  0.02820000  1.0
  H-  H126  1  0.60820000  0.36810000  0.52820000  1.0
  H-  H127  1  0.60820000  0.36810000  0.02820000  1.0
  H-  H128  1  0.38999387  0.63168974  0.52627289  1.0
  H-  H129  1  0.39164925  0.63094784  0.02862481  1.0
  H-  H130  1  0.39180000  0.13190000  0.52820000  1.0
  H-  H131  1  0.39180000  0.13190000  0.02820000  1.0
  H-  H132  1  0.89180000  0.63190000  0.52820000  1.0
  H-  H133  1  0.89180000  0.63190000  0.02820000  1.0
  H-  H134  1  0.89180000  0.13190000  0.52820000  1.0
  H-  H135  1  0.89180000  0.13190000  0.02820000  1.0
  H-  H136  1  0.10820000  0.63190000  0.47180000  1.0
  H-  H137  1  0.10820000  0.63190000  0.97180000  1.0
  H-  H138  1  0.10820000  0.13190000  0.47180000  1.0
  H-  H139  1  0.10820000  0.13190000  0.97180000  1.0
  H-  H140  1  0.60590456  0.62681367  0.46755482  1.0
  H-  H141  1  0.60820000  0.63190000  0.97180000  1.0
  H-  H142  1  0.60820000  0.13190000  0.47180000  1.0
  H-  H143  1  0.60820000  0.13190000  0.97180000  1.0
  H-  H144  1  0.27820000  0.63190000  0.64180000  1.0
  H-  H145  1  0.27859198  0.62972514  0.13682631  1.0
  H-  H146  1  0.27820000  0.13190000  0.64180000  1.0
  H-  H147  1  0.27312048  0.13446605  0.13976441  1.0
  H-  H148  1  0.78174766  0.63027199  0.64398090  1.0
  H-  H149  1  0.77820000  0.63190000  0.14180000  1.0
  H-  H150  1  0.77820000  0.13190000  0.64180000  1.0
  H-  H151  1  0.77674492  0.13144218  0.14244061  1.0
  H-  H152  1  0.22342190  0.63103299  0.35932997  1.0
  H-  H153  1  0.22180000  0.63190000  0.85820000  1.0
  H-  H154  1  0.22180000  0.13190000  0.35820000  1.0
  H-  H155  1  0.22180000  0.13190000  0.85820000  1.0
  H-  H156  1  0.72180000  0.63190000  0.35820000  1.0
  H-  H157  1  0.72180000  0.63190000  0.85820000  1.0
  H-  H158  1  0.72180000  0.13190000  0.35820000  1.0
  H-  H159  1  0.72180000  0.13190000  0.85820000  1.0
  H-  H160  1  0.22180000  0.86810000  0.64180000  1.0
  H-  H161  1  0.22180000  0.86810000  0.14180000  1.0
  H-  H162  1  0.22448941  0.36568744  0.64075689  1.0
  H-  H163  1  0.22180000  0.36810000  0.14180000  1.0
  H-  H164  1  0.72543962  0.86452896  0.64346069  1.0
  H-  H165  1  0.72180000  0.86810000  0.14180000  1.0
  H-  H166  1  0.71808952  0.36463519  0.64136772  1.0
  H-  H167  1  0.72180000  0.36810000  0.14180000  1.0
  H-  H168  1  0.27820000  0.86810000  0.35820000  1.0
  H-  H169  1  0.27820000  0.86810000  0.85820000  1.0
  H-  H170  1  0.27820000  0.36810000  0.35820000  1.0
  H-  H171  1  0.27820000  0.36810000  0.85820000  1.0
  H-  H172  1  0.77877688  0.86832813  0.35895807  1.0
  H-  H173  1  0.77820000  0.86810000  0.85820000  1.0
  H-  H174  1  0.77820000  0.36810000  0.35820000  1.0
  H-  H175  1  0.77884264  0.36661900  0.85757983  1.0
