# generated using pymatgen
data_LiY(BH4)4
_symmetry_space_group_name_H-M   'P 1'
_cell_length_a   12.46409348
_cell_length_b   12.46409348
_cell_length_c   12.48308144
_cell_angle_alpha   90.00000000
_cell_angle_beta   90.00000000
_cell_angle_gamma   90.00000000
_symmetry_Int_Tables_number   1
_chemical_formula_structural   LiY(BH4)4
_chemical_formula_sum   'Li8 Y8 B32 H128'
_cell_volume   1939.29196883
_cell_formula_units_Z   8
loop_
 _symmetry_equiv_pos_site_id
 _symmetry_equiv_pos_as_xyz
  1  'x, y, z'
loop_
 _atom_type_symbol
 _atom_type_oxidation_number
  Li+  1.0
  Y3+  3.0
  B3+  3.0
  H-  -1.0
loop_
 _atom_site_type_symbol
 _atom_site_label
 _atom_site_symmetry_multiplicity
 _atom_site_fract_x
 _atom_site_fract_y
 _atom_site_fract_z
 _atom_site_occupancy
  Li+  Li0  1  0.00000000  0.66666667  0.25000000  1.0
  Li+  Li1  1  0.50000000  0.66666667  0.25000000  1.0
  Li+  Li2  1  0.00000000  0.66666667  0.75000000  1.0
  Li+  Li3  1  0.50000000  0.66666667  0.75000000  1.0
  Li+  Li4  1  0.00000000  0.16666667  0.25000000  1.0
  Li+  Li5  1  0.50000000  0.16666667  0.25000000  1.0
  Li+  Li6  1  0.00000000  0.16666667  0.75000000  1.0
  Li+  Li7  1  0.50000000  0.16666667  0.75000000  1.0
  Y3+  Y8  1  0.75000000  0.41666667  0.25000000  1.0
  Y3+  Y9  1  0.25000000  0.41666667  0.25000000  1.0
  Y3+  Y10  1  0.75000000  0.41666667  0.75000000  1.0
  Y3+  Y11  1  0.25000000  0.41666667  0.75000000  1.0
  Y3+  Y12  1  0.75000000  0.91666667  0.25000000  1.0
  Y3+  Y13  1  0.25000000  0.91666667  0.25000000  1.0
  Y3+  Y14  1  0.75000000  0.91666667  0.75000000  1.0
  Y3+  Y15  1  0.25000000  0.91666667  0.75000000  1.0
  B3+  B16  1  0.62735000  0.29401667  0.15350000  1.0
  B3+  B17  1  0.12735000  0.29401667  0.15350000  1.0
  B3+  B18  1  0.62735000  0.29401667  0.65350000  1.0
  B3+  B19  1  0.12735000  0.29401667  0.65350000  1.0
  B3+  B20  1  0.62735000  0.79401667  0.15350000  1.0
  B3+  B21  1  0.12735000  0.79401667  0.15350000  1.0
  B3+  B22  1  0.62735000  0.79401667  0.65350000  1.0
  B3+  B23  1  0.12735000  0.79401667  0.65350000  1.0
  B3+  B24  1  0.87265000  0.53931667  0.15350000  1.0
  B3+  B25  1  0.37265000  0.53931667  0.15350000  1.0
  B3+  B26  1  0.87265000  0.53931667  0.65350000  1.0
  B3+  B27  1  0.37265000  0.53931667  0.65350000  1.0
  B3+  B28  1  0.87265000  0.03931667  0.15350000  1.0
  B3+  B29  1  0.37265000  0.03931667  0.15350000  1.0
  B3+  B30  1  0.87265000  0.03931667  0.65350000  1.0
  B3+  B31  1  0.37265000  0.03931667  0.65350000  1.0
  B3+  B32  1  0.87265000  0.29401667  0.34650000  1.0
  B3+  B33  1  0.37265000  0.29401667  0.34650000  1.0
  B3+  B34  1  0.87265000  0.29401667  0.84650000  1.0
  B3+  B35  1  0.37265000  0.29401667  0.84650000  1.0
  B3+  B36  1  0.87265000  0.79401667  0.34650000  1.0
  B3+  B37  1  0.37265000  0.79401667  0.34650000  1.0
  B3+  B38  1  0.87265000  0.79401667  0.84650000  1.0
  B3+  B39  1  0.37265000  0.79401667  0.84650000  1.0
  B3+  B40  1  0.62735000  0.53931667  0.34650000  1.0
  B3+  B41  1  0.12735000  0.53931667  0.34650000  1.0
  B3+  B42  1  0.62735000  0.53931667  0.84650000  1.0
  B3+  B43  1  0.12735000  0.53931667  0.84650000  1.0
  B3+  B44  1  0.62735000  0.03931667  0.34650000  1.0
  B3+  B45  1  0.12735000  0.03931667  0.34650000  1.0
  B3+  B46  1  0.62735000  0.03931667  0.84650000  1.0
  B3+  B47  1  0.12735000  0.03931667  0.84650000  1.0
  H-  H48  1  0.61905000  0.28571667  0.25270000  1.0
  H-  H49  1  0.11905000  0.28571667  0.25270000  1.0
  H-  H50  1  0.61905000  0.28571667  0.75270000  1.0
  H-  H51  1  0.11905000  0.28571667  0.75270000  1.0
  H-  H52  1  0.61905000  0.78571667  0.25270000  1.0
  H-  H53  1  0.11905000  0.78571667  0.25270000  1.0
  H-  H54  1  0.61905000  0.78571667  0.75270000  1.0
  H-  H55  1  0.11905000  0.78571667  0.75270000  1.0
  H-  H56  1  0.88095000  0.54761667  0.25270000  1.0
  H-  H57  1  0.38095000  0.54761667  0.25270000  1.0
  H-  H58  1  0.88095000  0.54761667  0.75270000  1.0
  H-  H59  1  0.38095000  0.54761667  0.75270000  1.0
  H-  H60  1  0.88095000  0.04761667  0.25270000  1.0
  H-  H61  1  0.38095000  0.04761667  0.25270000  1.0
  H-  H62  1  0.88095000  0.04761667  0.75270000  1.0
  H-  H63  1  0.38095000  0.04761667  0.75270000  1.0
  H-  H64  1  0.88095000  0.28571667  0.24730000  1.0
  H-  H65  1  0.38095000  0.28571667  0.24730000  1.0
  H-  H66  1  0.88095000  0.28571667  0.74730000  1.0
  H-  H67  1  0.38095000  0.28571667  0.74730000  1.0
  H-  H68  1  0.88095000  0.78571667  0.24730000  1.0
  H-  H69  1  0.38095000  0.78571667  0.24730000  1.0
  H-  H70  1  0.88095000  0.78571667  0.74730000  1.0
  H-  H71  1  0.38095000  0.78571667  0.74730000  1.0
  H-  H72  1  0.61905000  0.54761667  0.24730000  1.0
  H-  H73  1  0.11905000  0.54761667  0.24730000  1.0
  H-  H74  1  0.61905000  0.54761667  0.74730000  1.0
  H-  H75  1  0.11905000  0.54761667  0.74730000  1.0
  H-  H76  1  0.61905000  0.04761667  0.24730000  1.0
  H-  H77  1  0.11905000  0.04761667  0.24730000  1.0
  H-  H78  1  0.61905000  0.04761667  0.74730000  1.0
  H-  H79  1  0.11905000  0.04761667  0.74730000  1.0
  H-  H80  1  0.56775000  0.23441667  0.10630000  1.0
  H-  H81  1  0.06775000  0.23441667  0.10630000  1.0
  H-  H82  1  0.56775000  0.23441667  0.60630000  1.0
  H-  H83  1  0.06775000  0.23441667  0.60630000  1.0
  H-  H84  1  0.56775000  0.73441667  0.10630000  1.0
  H-  H85  1  0.06775000  0.73441667  0.10630000  1.0
  H-  H86  1  0.56775000  0.73441667  0.60630000  1.0
  H-  H87  1  0.06775000  0.73441667  0.60630000  1.0
  H-  H88  1  0.93225000  0.59891667  0.10630000  1.0
  H-  H89  1  0.43225000  0.59891667  0.10630000  1.0
  H-  H90  1  0.93225000  0.59891667  0.60630000  1.0
  H-  H91  1  0.43225000  0.59891667  0.60630000  1.0
  H-  H92  1  0.93225000  0.09891667  0.10630000  1.0
  H-  H93  1  0.43225000  0.09891667  0.10630000  1.0
  H-  H94  1  0.93225000  0.09891667  0.60630000  1.0
  H-  H95  1  0.43225000  0.09891667  0.60630000  1.0
  H-  H96  1  0.93225000  0.23441667  0.39370000  1.0
  H-  H97  1  0.43225000  0.23441667  0.39370000  1.0
  H-  H98  1  0.93225000  0.23441667  0.89370000  1.0
  H-  H99  1  0.43225000  0.23441667  0.89370000  1.0
  H-  H100  1  0.93225000  0.73441667  0.39370000  1.0
  H-  H101  1  0.43225000  0.73441667  0.39370000  1.0
  H-  H102  1  0.93225000  0.73441667  0.89370000  1.0
  H-  H103  1  0.43225000  0.73441667  0.89370000  1.0
  H-  H104  1  0.56775000  0.59891667  0.39370000  1.0
  H-  H105  1  0.06775000  0.59891667  0.39370000  1.0
  H-  H106  1  0.56775000  0.59891667  0.89370000  1.0
  H-  H107  1  0.06775000  0.59891667  0.89370000  1.0
  H-  H108  1  0.56775000  0.09891667  0.39370000  1.0
  H-  H109  1  0.06775000  0.09891667  0.39370000  1.0
  H-  H110  1  0.56775000  0.09891667  0.89370000  1.0
  H-  H111  1  0.06775000  0.09891667  0.89370000  1.0
  H-  H112  1  0.72180000  0.27486667  0.13190000  1.0
  H-  H113  1  0.22180000  0.27486667  0.13190000  1.0
  H-  H114  1  0.72180000  0.27486667  0.63190000  1.0
  H-  H115  1  0.22180000  0.27486667  0.63190000  1.0
  H-  H116  1  0.72180000  0.77486667  0.13190000  1.0
  H-  H117  1  0.22180000  0.77486667  0.13190000  1.0
  H-  H118  1  0.72180000  0.77486667  0.63190000  1.0
  H-  H119  1  0.22180000  0.77486667  0.63190000  1.0
  H-  H120  1  0.77820000  0.55846667  0.13190000  1.0
  H-  H121  1  0.27820000  0.55846667  0.13190000  1.0
  H-  H122  1  0.77820000  0.55846667  0.63190000  1.0
  H-  H123  1  0.27820000  0.55846667  0.63190000  1.0
  H-  H124  1  0.77820000  0.05846667  0.13190000  1.0
  H-  H125  1  0.27820000  0.05846667  0.13190000  1.0
  H-  H126  1  0.77820000  0.05846667  0.63190000  1.0
  H-  H127  1  0.27820000  0.05846667  0.63190000  1.0
  H-  H128  1  0.77820000  0.27486667  0.36810000  1.0
  H-  H129  1  0.27820000  0.27486667  0.36810000  1.0
  H-  H130  1  0.77820000  0.27486667  0.86810000  1.0
  H-  H131  1  0.27820000  0.27486667  0.86810000  1.0
  H-  H132  1  0.77820000  0.77486667  0.36810000  1.0
  H-  H133  1  0.27820000  0.77486667  0.36810000  1.0
  H-  H134  1  0.77820000  0.77486667  0.86810000  1.0
  H-  H135  1  0.27820000  0.77486667  0.86810000  1.0
  H-  H136  1  0.72180000  0.55846667  0.36810000  1.0
  H-  H137  1  0.22180000  0.55846667  0.36810000  1.0
  H-  H138  1  0.72180000  0.55846667  0.86810000  1.0
  H-  H139  1  0.22180000  0.55846667  0.86810000  1.0
  H-  H140  1  0.72180000  0.05846667  0.36810000  1.0
  H-  H141  1  0.22180000  0.05846667  0.36810000  1.0
  H-  H142  1  0.72180000  0.05846667  0.86810000  1.0
  H-  H143  1  0.22180000  0.05846667  0.86810000  1.0
  H-  H144  1  0.89180000  0.38846667  0.36810000  1.0
  H-  H145  1  0.39180000  0.38846667  0.36810000  1.0
  H-  H146  1  0.89180000  0.38846667  0.86810000  1.0
  H-  H147  1  0.39180000  0.38846667  0.86810000  1.0
  H-  H148  1  0.89180000  0.88846667  0.36810000  1.0
  H-  H149  1  0.39180000  0.88846667  0.36810000  1.0
  H-  H150  1  0.89180000  0.88846667  0.86810000  1.0
  H-  H151  1  0.39180000  0.88846667  0.86810000  1.0
  H-  H152  1  0.60820000  0.44486667  0.36810000  1.0
  H-  H153  1  0.10820000  0.44486667  0.36810000  1.0
  H-  H154  1  0.60820000  0.44486667  0.86810000  1.0
  H-  H155  1  0.10820000  0.44486667  0.86810000  1.0
  H-  H156  1  0.60820000  0.94486667  0.36810000  1.0
  H-  H157  1  0.10820000  0.94486667  0.36810000  1.0
  H-  H158  1  0.60820000  0.94486667  0.86810000  1.0
  H-  H159  1  0.10820000  0.94486667  0.86810000  1.0
  H-  H160  1  0.89180000  0.44486667  0.13190000  1.0
  H-  H161  1  0.39180000  0.44486667  0.13190000  1.0
  H-  H162  1  0.89180000  0.44486667  0.63190000  1.0
  H-  H163  1  0.39180000  0.44486667  0.63190000  1.0
  H-  H164  1  0.89180000  0.94486667  0.13190000  1.0
  H-  H165  1  0.39180000  0.94486667  0.13190000  1.0
  H-  H166  1  0.89180000  0.94486667  0.63190000  1.0
  H-  H167  1  0.39180000  0.94486667  0.63190000  1.0
  H-  H168  1  0.60820000  0.38846667  0.13190000  1.0
  H-  H169  1  0.10820000  0.38846667  0.13190000  1.0
  H-  H170  1  0.60820000  0.38846667  0.63190000  1.0
  H-  H171  1  0.10820000  0.38846667  0.63190000  1.0
  H-  H172  1  0.60820000  0.88846667  0.13190000  1.0
  H-  H173  1  0.10820000  0.88846667  0.13190000  1.0
  H-  H174  1  0.60820000  0.88846667  0.63190000  1.0
  H-  H175  1  0.10820000  0.88846667  0.63190000  1.0
