# generated using pymatgen
data_LiY(BH4)4
_symmetry_space_group_name_H-M   'P 1'
_cell_length_a   12.47200000
_cell_length_b   12.47200000
_cell_length_c   12.49100000
_cell_angle_alpha   90.00000000
_cell_angle_beta   90.00000000
_cell_angle_gamma   90.00000000
_symmetry_Int_Tables_number   1
_chemical_formula_structural   LiY(BH4)4
_chemical_formula_sum   'Li8 Y8 B32 H128'
_cell_volume   1942.98484294
_cell_formula_units_Z   8
loop_
 _symmetry_equiv_pos_site_id
 _symmetry_equiv_pos_as_xyz
  1  'x, y, z'
loop_
 _atom_type_symbol
 _atom_type_oxidation_number
  Li+  1.0
  Y3+  3.0
  B3+  3.0
  H-  -1.0
loop_
 _atom_site_type_symbol
 _atom_site_label
 _atom_site_symmetry_multiplicity
 _atom_site_fract_x
 _atom_site_fract_y
 _atom_site_fract_z
 _atom_site_occupancy
  Li+  Li1  1  0.00000000  0.00000000  0.25000000  1.0
  Li+  Li1  1  0.00000000  0.50000000  0.25000000  1.0
  Li+  Li1  1  0.00000000  0.00000000  0.75000000  1.0
  Li+  Li1  1  0.00000000  0.50000000  0.75000000  1.0
  Li+  Li1  1  0.50000000  0.00000000  0.25000000  1.0
  Li+  Li1  1  0.50000000  0.50000000  0.25000000  1.0
  Li+  Li1  1  0.50000000  0.00000000  0.75000000  1.0
  Li+  Li1  1  0.50000000  0.50000000  0.75000000  1.0
  Y3+  Y1  1  0.25000000  0.25000000  0.25000000  1.0
  Y3+  Y1  1  0.25000000  0.75000000  0.25000000  1.0
  Y3+  Y1  1  0.25000000  0.25000000  0.75000000  1.0
  Y3+  Y1  1  0.25000000  0.75000000  0.75000000  1.0
  Y3+  Y1  1  0.75000000  0.25000000  0.25000000  1.0
  Y3+  Y1  1  0.75000000  0.75000000  0.25000000  1.0
  Y3+  Y1  1  0.75000000  0.25000000  0.75000000  1.0
  Y3+  Y1  1  0.75000000  0.75000000  0.75000000  1.0
  B3+  B1  1  0.37265000  0.37265000  0.15350000  1.0
  B3+  B1  1  0.37265000  0.87265000  0.15350000  1.0
  B3+  B1  1  0.37265000  0.37265000  0.65350000  1.0
  B3+  B1  1  0.37265000  0.87265000  0.65350000  1.0
  B3+  B1  1  0.87265000  0.37265000  0.15350000  1.0
  B3+  B1  1  0.87265000  0.87265000  0.15350000  1.0
  B3+  B1  1  0.87265000  0.37265000  0.65350000  1.0
  B3+  B1  1  0.87265000  0.87265000  0.65350000  1.0
  B3+  B1  1  0.12735000  0.12735000  0.15350000  1.0
  B3+  B1  1  0.12735000  0.62735000  0.15350000  1.0
  B3+  B1  1  0.12735000  0.12735000  0.65350000  1.0
  B3+  B1  1  0.12735000  0.62735000  0.65350000  1.0
  B3+  B1  1  0.62735000  0.12735000  0.15350000  1.0
  B3+  B1  1  0.62735000  0.62735000  0.15350000  1.0
  B3+  B1  1  0.62735000  0.12735000  0.65350000  1.0
  B3+  B1  1  0.62735000  0.62735000  0.65350000  1.0
  B3+  B1  1  0.37265000  0.12735000  0.34650000  1.0
  B3+  B1  1  0.37265000  0.62735000  0.34650000  1.0
  B3+  B1  1  0.37265000  0.12735000  0.84650000  1.0
  B3+  B1  1  0.37265000  0.62735000  0.84650000  1.0
  B3+  B1  1  0.87265000  0.12735000  0.34650000  1.0
  B3+  B1  1  0.87265000  0.62735000  0.34650000  1.0
  B3+  B1  1  0.87265000  0.12735000  0.84650000  1.0
  B3+  B1  1  0.87265000  0.62735000  0.84650000  1.0
  B3+  B1  1  0.12735000  0.37265000  0.34650000  1.0
  B3+  B1  1  0.12735000  0.87265000  0.34650000  1.0
  B3+  B1  1  0.12735000  0.37265000  0.84650000  1.0
  B3+  B1  1  0.12735000  0.87265000  0.84650000  1.0
  B3+  B1  1  0.62735000  0.37265000  0.34650000  1.0
  B3+  B1  1  0.62735000  0.87265000  0.34650000  1.0
  B3+  B1  1  0.62735000  0.37265000  0.84650000  1.0
  B3+  B1  1  0.62735000  0.87265000  0.84650000  1.0
  H-  H1  1  0.38095000  0.38095000  0.25270000  1.0
  H-  H1  1  0.38095000  0.88095000  0.25270000  1.0
  H-  H1  1  0.38095000  0.38095000  0.75270000  1.0
  H-  H1  1  0.38095000  0.88095000  0.75270000  1.0
  H-  H1  1  0.88095000  0.38095000  0.25270000  1.0
  H-  H1  1  0.88095000  0.88095000  0.25270000  1.0
  H-  H1  1  0.88095000  0.38095000  0.75270000  1.0
  H-  H1  1  0.88095000  0.88095000  0.75270000  1.0
  H-  H1  1  0.11905000  0.11905000  0.25270000  1.0
  H-  H1  1  0.11905000  0.61905000  0.25270000  1.0
  H-  H1  1  0.11905000  0.11905000  0.75270000  1.0
  H-  H1  1  0.11905000  0.61905000  0.75270000  1.0
  H-  H1  1  0.61905000  0.11905000  0.25270000  1.0
  H-  H1  1  0.61905000  0.61905000  0.25270000  1.0
  H-  H1  1  0.61905000  0.11905000  0.75270000  1.0
  H-  H1  1  0.61905000  0.61905000  0.75270000  1.0
  H-  H1  1  0.38095000  0.11905000  0.24730000  1.0
  H-  H1  1  0.38095000  0.61905000  0.24730000  1.0
  H-  H1  1  0.38095000  0.11905000  0.74730000  1.0
  H-  H1  1  0.38095000  0.61905000  0.74730000  1.0
  H-  H1  1  0.88095000  0.11905000  0.24730000  1.0
  H-  H1  1  0.88095000  0.61905000  0.24730000  1.0
  H-  H1  1  0.88095000  0.11905000  0.74730000  1.0
  H-  H1  1  0.88095000  0.61905000  0.74730000  1.0
  H-  H1  1  0.11905000  0.38095000  0.24730000  1.0
  H-  H1  1  0.11905000  0.88095000  0.24730000  1.0
  H-  H1  1  0.11905000  0.38095000  0.74730000  1.0
  H-  H1  1  0.11905000  0.88095000  0.74730000  1.0
  H-  H1  1  0.61905000  0.38095000  0.24730000  1.0
  H-  H1  1  0.61905000  0.88095000  0.24730000  1.0
  H-  H1  1  0.61905000  0.38095000  0.74730000  1.0
  H-  H1  1  0.61905000  0.88095000  0.74730000  1.0
  H-  H2  1  0.43225000  0.43225000  0.10630000  1.0
  H-  H2  1  0.43225000  0.93225000  0.10630000  1.0
  H-  H2  1  0.43225000  0.43225000  0.60630000  1.0
  H-  H2  1  0.43225000  0.93225000  0.60630000  1.0
  H-  H2  1  0.93225000  0.43225000  0.10630000  1.0
  H-  H2  1  0.93225000  0.93225000  0.10630000  1.0
  H-  H2  1  0.93225000  0.43225000  0.60630000  1.0
  H-  H2  1  0.93225000  0.93225000  0.60630000  1.0
  H-  H2  1  0.06775000  0.06775000  0.10630000  1.0
  H-  H2  1  0.06775000  0.56775000  0.10630000  1.0
  H-  H2  1  0.06775000  0.06775000  0.60630000  1.0
  H-  H2  1  0.06775000  0.56775000  0.60630000  1.0
  H-  H2  1  0.56775000  0.06775000  0.10630000  1.0
  H-  H2  1  0.56775000  0.56775000  0.10630000  1.0
  H-  H2  1  0.56775000  0.06775000  0.60630000  1.0
  H-  H2  1  0.56775000  0.56775000  0.60630000  1.0
  H-  H2  1  0.43225000  0.06775000  0.39370000  1.0
  H-  H2  1  0.43225000  0.56775000  0.39370000  1.0
  H-  H2  1  0.43225000  0.06775000  0.89370000  1.0
  H-  H2  1  0.43225000  0.56775000  0.89370000  1.0
  H-  H2  1  0.93225000  0.06775000  0.39370000  1.0
  H-  H2  1  0.93225000  0.56775000  0.39370000  1.0
  H-  H2  1  0.93225000  0.06775000  0.89370000  1.0
  H-  H2  1  0.93225000  0.56775000  0.89370000  1.0
  H-  H2  1  0.06775000  0.43225000  0.39370000  1.0
  H-  H2  1  0.06775000  0.93225000  0.39370000  1.0
  H-  H2  1  0.06775000  0.43225000  0.89370000  1.0
  H-  H2  1  0.06775000  0.93225000  0.89370000  1.0
  H-  H2  1  0.56775000  0.43225000  0.39370000  1.0
  H-  H2  1  0.56775000  0.93225000  0.39370000  1.0
  H-  H2  1  0.56775000  0.43225000  0.89370000  1.0
  H-  H2  1  0.56775000  0.93225000  0.89370000  1.0
  H-  H3  1  0.39180000  0.27820000  0.13190000  1.0
  H-  H3  1  0.39180000  0.77820000  0.13190000  1.0
  H-  H3  1  0.39180000  0.27820000  0.63190000  1.0
  H-  H3  1  0.39180000  0.77820000  0.63190000  1.0
  H-  H3  1  0.89180000  0.27820000  0.13190000  1.0
  H-  H3  1  0.89180000  0.77820000  0.13190000  1.0
  H-  H3  1  0.89180000  0.27820000  0.63190000  1.0
  H-  H3  1  0.89180000  0.77820000  0.63190000  1.0
  H-  H3  1  0.10820000  0.22180000  0.13190000  1.0
  H-  H3  1  0.10820000  0.72180000  0.13190000  1.0
  H-  H3  1  0.10820000  0.22180000  0.63190000  1.0
  H-  H3  1  0.10820000  0.72180000  0.63190000  1.0
  H-  H3  1  0.60820000  0.22180000  0.13190000  1.0
  H-  H3  1  0.60820000  0.72180000  0.13190000  1.0
  H-  H3  1  0.60820000  0.22180000  0.63190000  1.0
  H-  H3  1  0.60820000  0.72180000  0.63190000  1.0
  H-  H3  1  0.39180000  0.22180000  0.36810000  1.0
  H-  H3  1  0.39180000  0.72180000  0.36810000  1.0
  H-  H3  1  0.39180000  0.22180000  0.86810000  1.0
  H-  H3  1  0.39180000  0.72180000  0.86810000  1.0
  H-  H3  1  0.89180000  0.22180000  0.36810000  1.0
  H-  H3  1  0.89180000  0.72180000  0.36810000  1.0
  H-  H3  1  0.89180000  0.22180000  0.86810000  1.0
  H-  H3  1  0.89180000  0.72180000  0.86810000  1.0
  H-  H3  1  0.10820000  0.27820000  0.36810000  1.0
  H-  H3  1  0.10820000  0.77820000  0.36810000  1.0
  H-  H3  1  0.10820000  0.27820000  0.86810000  1.0
  H-  H3  1  0.10820000  0.77820000  0.86810000  1.0
  H-  H3  1  0.60820000  0.27820000  0.36810000  1.0
  H-  H3  1  0.60820000  0.77820000  0.36810000  1.0
  H-  H3  1  0.60820000  0.27820000  0.86810000  1.0
  H-  H3  1  0.60820000  0.77820000  0.86810000  1.0
  H-  H3  1  0.27820000  0.10820000  0.36810000  1.0
  H-  H3  1  0.27820000  0.60820000  0.36810000  1.0
  H-  H3  1  0.27820000  0.10820000  0.86810000  1.0
  H-  H3  1  0.27820000  0.60820000  0.86810000  1.0
  H-  H3  1  0.77820000  0.10820000  0.36810000  1.0
  H-  H3  1  0.77820000  0.60820000  0.36810000  1.0
  H-  H3  1  0.77820000  0.10820000  0.86810000  1.0
  H-  H3  1  0.77820000  0.60820000  0.86810000  1.0
  H-  H3  1  0.22180000  0.39180000  0.36810000  1.0
  H-  H3  1  0.22180000  0.89180000  0.36810000  1.0
  H-  H3  1  0.22180000  0.39180000  0.86810000  1.0
  H-  H3  1  0.22180000  0.89180000  0.86810000  1.0
  H-  H3  1  0.72180000  0.39180000  0.36810000  1.0
  H-  H3  1  0.72180000  0.89180000  0.36810000  1.0
  H-  H3  1  0.72180000  0.39180000  0.86810000  1.0
  H-  H3  1  0.72180000  0.89180000  0.86810000  1.0
  H-  H3  1  0.22180000  0.10820000  0.13190000  1.0
  H-  H3  1  0.22180000  0.60820000  0.13190000  1.0
  H-  H3  1  0.22180000  0.10820000  0.63190000  1.0
  H-  H3  1  0.22180000  0.60820000  0.63190000  1.0
  H-  H3  1  0.72180000  0.10820000  0.13190000  1.0
  H-  H3  1  0.72180000  0.60820000  0.13190000  1.0
  H-  H3  1  0.72180000  0.10820000  0.63190000  1.0
  H-  H3  1  0.72180000  0.60820000  0.63190000  1.0
  H-  H3  1  0.27820000  0.39180000  0.13190000  1.0
  H-  H3  1  0.27820000  0.89180000  0.13190000  1.0
  H-  H3  1  0.27820000  0.39180000  0.63190000  1.0
  H-  H3  1  0.27820000  0.89180000  0.63190000  1.0
  H-  H3  1  0.77820000  0.39180000  0.13190000  1.0
  H-  H3  1  0.77820000  0.89180000  0.13190000  1.0
  H-  H3  1  0.77820000  0.39180000  0.63190000  1.0
  H-  H3  1  0.77820000  0.89180000  0.63190000  1.0
