# generated using pymatgen
data_Li2SnS3
_symmetry_space_group_name_H-M   'P 1'
_cell_length_a   12.79280000
_cell_length_b   12.79930459
_cell_length_c   24.80960000
_cell_angle_alpha   85.08732679
_cell_angle_beta   80.13300000
_cell_angle_gamma   60.01680965
_symmetry_Int_Tables_number   1
_chemical_formula_structural   Li2SnS3
_chemical_formula_sum   'Li64 Sn32 S96'
_cell_volume   3466.60156463
_cell_formula_units_Z   32
loop_
 _symmetry_equiv_pos_site_id
 _symmetry_equiv_pos_as_xyz
  1  'x, y, z'
loop_
 _atom_type_symbol
 _atom_type_oxidation_number
  Li+  1.0
  Sn4+  4.0
  S2-  -2.0
loop_
 _atom_site_type_symbol
 _atom_site_label
 _atom_site_symmetry_multiplicity
 _atom_site_fract_x
 _atom_site_fract_y
 _atom_site_fract_z
 _atom_site_occupancy
  Li+  Li1  1  0.33470000  0.08400000  0.24970000  1.0
  Li+  Li1  1  0.33470000  0.08400000  0.74970000  1.0
  Li+  Li1  1  0.33470000  0.58400000  0.24970000  1.0
  Li+  Li1  1  0.33470000  0.58400000  0.74970000  1.0
  Li+  Li1  1  0.83470000  0.08400000  0.24970000  1.0
  Li+  Li1  1  0.83470000  0.08400000  0.74970000  1.0
  Li+  Li1  1  0.83470000  0.58400000  0.24970000  1.0
  Li+  Li1  1  0.83470000  0.58400000  0.74970000  1.0
  Li+  Li1  1  0.08130000  0.08400000  0.00030000  1.0
  Li+  Li1  1  0.08130000  0.08400000  0.50030000  1.0
  Li+  Li1  1  0.08130000  0.58400000  0.00030000  1.0
  Li+  Li1  1  0.08130000  0.58400000  0.50030000  1.0
  Li+  Li1  1  0.58130000  0.08400000  0.00030000  1.0
  Li+  Li1  1  0.58130000  0.08400000  0.50030000  1.0
  Li+  Li1  1  0.58130000  0.58400000  0.00030000  1.0
  Li+  Li1  1  0.58130000  0.58400000  0.50030000  1.0
  Li+  Li1  1  0.16530000  0.41600000  0.25030000  1.0
  Li+  Li1  1  0.16530000  0.41600000  0.75030000  1.0
  Li+  Li1  1  0.16530000  0.91600000  0.25030000  1.0
  Li+  Li1  1  0.16530000  0.91600000  0.75030000  1.0
  Li+  Li1  1  0.66530000  0.41600000  0.25030000  1.0
  Li+  Li1  1  0.66530000  0.41600000  0.75030000  1.0
  Li+  Li1  1  0.66530000  0.91600000  0.25030000  1.0
  Li+  Li1  1  0.66530000  0.91600000  0.75030000  1.0
  Li+  Li1  1  0.41870000  0.41600000  0.49970000  1.0
  Li+  Li1  1  0.41870000  0.41600000  0.99970000  1.0
  Li+  Li1  1  0.41870000  0.91600000  0.49970000  1.0
  Li+  Li1  1  0.41870000  0.91600000  0.99970000  1.0
  Li+  Li1  1  0.91870000  0.41600000  0.49970000  1.0
  Li+  Li1  1  0.91870000  0.41600000  0.99970000  1.0
  Li+  Li1  1  0.91870000  0.91600000  0.49970000  1.0
  Li+  Li1  1  0.91870000  0.91600000  0.99970000  1.0
  Li+  Li2  1  0.29150000  0.41700000  0.37500000  1.0
  Li+  Li2  1  0.29150000  0.41700000  0.87500000  1.0
  Li+  Li2  1  0.29150000  0.91700000  0.37500000  1.0
  Li+  Li2  1  0.29150000  0.91700000  0.87500000  1.0
  Li+  Li2  1  0.79150000  0.41700000  0.37500000  1.0
  Li+  Li2  1  0.79150000  0.41700000  0.87500000  1.0
  Li+  Li2  1  0.79150000  0.91700000  0.37500000  1.0
  Li+  Li2  1  0.79150000  0.91700000  0.87500000  1.0
  Li+  Li2  1  0.20850000  0.08300000  0.12500000  1.0
  Li+  Li2  1  0.20850000  0.08300000  0.62500000  1.0
  Li+  Li2  1  0.20850000  0.58300000  0.12500000  1.0
  Li+  Li2  1  0.20850000  0.58300000  0.62500000  1.0
  Li+  Li2  1  0.70850000  0.08300000  0.12500000  1.0
  Li+  Li2  1  0.70850000  0.08300000  0.62500000  1.0
  Li+  Li2  1  0.70850000  0.58300000  0.12500000  1.0
  Li+  Li2  1  0.70850000  0.58300000  0.62500000  1.0
  Li+  Li3  1  0.25000000  0.25000000  0.00000000  1.0
  Li+  Li3  1  0.25000000  0.25000000  0.50000000  1.0
  Li+  Li3  1  0.25000000  0.75000000  0.00000000  1.0
  Li+  Li3  1  0.25000000  0.75000000  0.50000000  1.0
  Li+  Li3  1  0.75000000  0.25000000  0.00000000  1.0
  Li+  Li3  1  0.75000000  0.25000000  0.50000000  1.0
  Li+  Li3  1  0.75000000  0.75000000  0.00000000  1.0
  Li+  Li3  1  0.75000000  0.75000000  0.50000000  1.0
  Li+  Li3  1  0.00000000  0.25000000  0.25000000  1.0
  Li+  Li3  1  0.00000000  0.25000000  0.75000000  1.0
  Li+  Li3  1  0.00000000  0.75000000  0.25000000  1.0
  Li+  Li3  1  0.00000000  0.75000000  0.75000000  1.0
  Li+  Li3  1  0.50000000  0.25000000  0.25000000  1.0
  Li+  Li3  1  0.50000000  0.25000000  0.75000000  1.0
  Li+  Li3  1  0.50000000  0.75000000  0.25000000  1.0
  Li+  Li3  1  0.50000000  0.75000000  0.75000000  1.0
  Sn4+  Sn1  1  0.45833500  0.08333000  0.37500000  1.0
  Sn4+  Sn1  1  0.45833500  0.08333000  0.87500000  1.0
  Sn4+  Sn1  1  0.45833500  0.58333000  0.37500000  1.0
  Sn4+  Sn1  1  0.45833500  0.58333000  0.87500000  1.0
  Sn4+  Sn1  1  0.95833500  0.08333000  0.37500000  1.0
  Sn4+  Sn1  1  0.95833500  0.08333000  0.87500000  1.0
  Sn4+  Sn1  1  0.95833500  0.58333000  0.37500000  1.0
  Sn4+  Sn1  1  0.95833500  0.58333000  0.87500000  1.0
  Sn4+  Sn1  1  0.04166500  0.41667000  0.12500000  1.0
  Sn4+  Sn1  1  0.04166500  0.41667000  0.62500000  1.0
  Sn4+  Sn1  1  0.04166500  0.91667000  0.12500000  1.0
  Sn4+  Sn1  1  0.04166500  0.91667000  0.62500000  1.0
  Sn4+  Sn1  1  0.54166500  0.41667000  0.12500000  1.0
  Sn4+  Sn1  1  0.54166500  0.41667000  0.62500000  1.0
  Sn4+  Sn1  1  0.54166500  0.91667000  0.12500000  1.0
  Sn4+  Sn1  1  0.54166500  0.91667000  0.62500000  1.0
  Sn4+  Sn2  1  0.12505500  0.24989000  0.37500000  1.0
  Sn4+  Sn2  1  0.12505500  0.24989000  0.87500000  1.0
  Sn4+  Sn2  1  0.12505500  0.74989000  0.37500000  1.0
  Sn4+  Sn2  1  0.12505500  0.74989000  0.87500000  1.0
  Sn4+  Sn2  1  0.62505500  0.24989000  0.37500000  1.0
  Sn4+  Sn2  1  0.62505500  0.24989000  0.87500000  1.0
  Sn4+  Sn2  1  0.62505500  0.74989000  0.37500000  1.0
  Sn4+  Sn2  1  0.62505500  0.74989000  0.87500000  1.0
  Sn4+  Sn2  1  0.37494500  0.25011000  0.12500000  1.0
  Sn4+  Sn2  1  0.37494500  0.25011000  0.62500000  1.0
  Sn4+  Sn2  1  0.37494500  0.75011000  0.12500000  1.0
  Sn4+  Sn2  1  0.37494500  0.75011000  0.62500000  1.0
  Sn4+  Sn2  1  0.87494500  0.25011000  0.12500000  1.0
  Sn4+  Sn2  1  0.87494500  0.25011000  0.62500000  1.0
  Sn4+  Sn2  1  0.87494500  0.75011000  0.12500000  1.0
  Sn4+  Sn2  1  0.87494500  0.75011000  0.62500000  1.0
  S2-  S1  1  0.40266000  0.08310000  0.06561000  1.0
  S2-  S1  1  0.40266000  0.08310000  0.56561000  1.0
  S2-  S1  1  0.40266000  0.58310000  0.06561000  1.0
  S2-  S1  1  0.40266000  0.58310000  0.56561000  1.0
  S2-  S1  1  0.90266000  0.08310000  0.06561000  1.0
  S2-  S1  1  0.90266000  0.08310000  0.56561000  1.0
  S2-  S1  1  0.90266000  0.58310000  0.06561000  1.0
  S2-  S1  1  0.90266000  0.58310000  0.56561000  1.0
  S2-  S1  1  0.01424000  0.08310000  0.18439000  1.0
  S2-  S1  1  0.01424000  0.08310000  0.68439000  1.0
  S2-  S1  1  0.01424000  0.58310000  0.18439000  1.0
  S2-  S1  1  0.01424000  0.58310000  0.68439000  1.0
  S2-  S1  1  0.51424000  0.08310000  0.18439000  1.0
  S2-  S1  1  0.51424000  0.08310000  0.68439000  1.0
  S2-  S1  1  0.51424000  0.58310000  0.18439000  1.0
  S2-  S1  1  0.51424000  0.58310000  0.68439000  1.0
  S2-  S1  1  0.09734000  0.41690000  0.43439000  1.0
  S2-  S1  1  0.09734000  0.41690000  0.93439000  1.0
  S2-  S1  1  0.09734000  0.91690000  0.43439000  1.0
  S2-  S1  1  0.09734000  0.91690000  0.93439000  1.0
  S2-  S1  1  0.59734000  0.41690000  0.43439000  1.0
  S2-  S1  1  0.59734000  0.41690000  0.93439000  1.0
  S2-  S1  1  0.59734000  0.91690000  0.43439000  1.0
  S2-  S1  1  0.59734000  0.91690000  0.93439000  1.0
  S2-  S1  1  0.48576000  0.41690000  0.31561000  1.0
  S2-  S1  1  0.48576000  0.41690000  0.81561000  1.0
  S2-  S1  1  0.48576000  0.91690000  0.31561000  1.0
  S2-  S1  1  0.48576000  0.91690000  0.81561000  1.0
  S2-  S1  1  0.98576000  0.41690000  0.31561000  1.0
  S2-  S1  1  0.98576000  0.41690000  0.81561000  1.0
  S2-  S1  1  0.98576000  0.91690000  0.31561000  1.0
  S2-  S1  1  0.98576000  0.91690000  0.81561000  1.0
  S2-  S2  1  0.31133500  0.24180000  0.31558500  1.0
  S2-  S2  1  0.31133500  0.24180000  0.81558500  1.0
  S2-  S2  1  0.31133500  0.74180000  0.31558500  1.0
  S2-  S2  1  0.31133500  0.74180000  0.81558500  1.0
  S2-  S2  1  0.81133500  0.24180000  0.31558500  1.0
  S2-  S2  1  0.81133500  0.24180000  0.81558500  1.0
  S2-  S2  1  0.81133500  0.74180000  0.31558500  1.0
  S2-  S2  1  0.81133500  0.74180000  0.81558500  1.0
  S2-  S2  1  0.44686500  0.24180000  0.43441500  1.0
  S2-  S2  1  0.44686500  0.24180000  0.93441500  1.0
  S2-  S2  1  0.44686500  0.74180000  0.43441500  1.0
  S2-  S2  1  0.44686500  0.74180000  0.93441500  1.0
  S2-  S2  1  0.94686500  0.24180000  0.43441500  1.0
  S2-  S2  1  0.94686500  0.24180000  0.93441500  1.0
  S2-  S2  1  0.94686500  0.74180000  0.43441500  1.0
  S2-  S2  1  0.94686500  0.74180000  0.93441500  1.0
  S2-  S2  1  0.18866500  0.25820000  0.18441500  1.0
  S2-  S2  1  0.18866500  0.25820000  0.68441500  1.0
  S2-  S2  1  0.18866500  0.75820000  0.18441500  1.0
  S2-  S2  1  0.18866500  0.75820000  0.68441500  1.0
  S2-  S2  1  0.68866500  0.25820000  0.18441500  1.0
  S2-  S2  1  0.68866500  0.25820000  0.68441500  1.0
  S2-  S2  1  0.68866500  0.75820000  0.18441500  1.0
  S2-  S2  1  0.68866500  0.75820000  0.68441500  1.0
  S2-  S2  1  0.05313500  0.25820000  0.06558500  1.0
  S2-  S2  1  0.05313500  0.25820000  0.56558500  1.0
  S2-  S2  1  0.05313500  0.75820000  0.06558500  1.0
  S2-  S2  1  0.05313500  0.75820000  0.56558500  1.0
  S2-  S2  1  0.55313500  0.25820000  0.06558500  1.0
  S2-  S2  1  0.55313500  0.25820000  0.56558500  1.0
  S2-  S2  1  0.55313500  0.75820000  0.06558500  1.0
  S2-  S2  1  0.55313500  0.75820000  0.56558500  1.0
  S2-  S3  1  0.27142000  0.09200000  0.43543500  1.0
  S2-  S3  1  0.27142000  0.09200000  0.93543500  1.0
  S2-  S3  1  0.27142000  0.59200000  0.43543500  1.0
  S2-  S3  1  0.27142000  0.59200000  0.93543500  1.0
  S2-  S3  1  0.77142000  0.09200000  0.43543500  1.0
  S2-  S3  1  0.77142000  0.09200000  0.93543500  1.0
  S2-  S3  1  0.77142000  0.59200000  0.43543500  1.0
  S2-  S3  1  0.77142000  0.59200000  0.93543500  1.0
  S2-  S3  1  0.13658000  0.09200000  0.31456500  1.0
  S2-  S3  1  0.13658000  0.09200000  0.81456500  1.0
  S2-  S3  1  0.13658000  0.59200000  0.31456500  1.0
  S2-  S3  1  0.13658000  0.59200000  0.81456500  1.0
  S2-  S3  1  0.63658000  0.09200000  0.31456500  1.0
  S2-  S3  1  0.63658000  0.09200000  0.81456500  1.0
  S2-  S3  1  0.63658000  0.59200000  0.31456500  1.0
  S2-  S3  1  0.63658000  0.59200000  0.81456500  1.0
  S2-  S3  1  0.22858000  0.40800000  0.06456500  1.0
  S2-  S3  1  0.22858000  0.40800000  0.56456500  1.0
  S2-  S3  1  0.22858000  0.90800000  0.06456500  1.0
  S2-  S3  1  0.22858000  0.90800000  0.56456500  1.0
  S2-  S3  1  0.72858000  0.40800000  0.06456500  1.0
  S2-  S3  1  0.72858000  0.40800000  0.56456500  1.0
  S2-  S3  1  0.72858000  0.90800000  0.06456500  1.0
  S2-  S3  1  0.72858000  0.90800000  0.56456500  1.0
  S2-  S3  1  0.36342000  0.40800000  0.18543500  1.0
  S2-  S3  1  0.36342000  0.40800000  0.68543500  1.0
  S2-  S3  1  0.36342000  0.90800000  0.18543500  1.0
  S2-  S3  1  0.36342000  0.90800000  0.68543500  1.0
  S2-  S3  1  0.86342000  0.40800000  0.18543500  1.0
  S2-  S3  1  0.86342000  0.40800000  0.68543500  1.0
  S2-  S3  1  0.86342000  0.90800000  0.18543500  1.0
  S2-  S3  1  0.86342000  0.90800000  0.68543500  1.0
