# generated using pymatgen
data_Li4SnSe4
_symmetry_space_group_name_H-M   'P 1'
_cell_length_a   13.19780000
_cell_length_b   16.44340000
_cell_length_c   14.93100000
_cell_angle_alpha   90.00000000
_cell_angle_beta   90.00000000
_cell_angle_gamma   90.00000000
_symmetry_Int_Tables_number   1
_chemical_formula_structural   Li4SnSe4
_chemical_formula_sum   'Li64 Sn16 Se64'
_cell_volume   3240.27641519
_cell_formula_units_Z   16
loop_
 _symmetry_equiv_pos_site_id
 _symmetry_equiv_pos_as_xyz
  1  'x, y, z'
loop_
 _atom_type_symbol
 _atom_type_oxidation_number
  Li+  1.0
  Sn4+  4.0
  Se2-  -2.0
loop_
 _atom_site_type_symbol
 _atom_site_label
 _atom_site_symmetry_multiplicity
 _atom_site_fract_x
 _atom_site_fract_y
 _atom_site_fract_z
 _atom_site_occupancy
  Li+  Li1  1  0.25000000  0.00000000  0.00000000  1.0
  Li+  Li1  1  0.25000000  0.50000000  0.00000000  1.0
  Li+  Li1  1  0.75000000  0.00000000  0.00000000  1.0
  Li+  Li1  1  0.75000000  0.50000000  0.00000000  1.0
  Li+  Li1  1  0.00000000  0.25000000  0.50000000  1.0
  Li+  Li1  1  0.00000000  0.75000000  0.50000000  1.0
  Li+  Li1  1  0.50000000  0.25000000  0.50000000  1.0
  Li+  Li1  1  0.50000000  0.75000000  0.50000000  1.0
  Li+  Li1  1  0.25000000  0.25000000  0.00000000  1.0
  Li+  Li1  1  0.25000000  0.75000000  0.00000000  1.0
  Li+  Li1  1  0.75000000  0.25000000  0.00000000  1.0
  Li+  Li1  1  0.75000000  0.75000000  0.00000000  1.0
  Li+  Li1  1  0.00000000  0.00000000  0.50000000  1.0
  Li+  Li1  1  0.00000000  0.50000000  0.50000000  1.0
  Li+  Li1  1  0.50000000  0.00000000  0.50000000  1.0
  Li+  Li1  1  0.50000000  0.50000000  0.50000000  1.0
  Li+  Li2  1  0.34000000  0.00250000  0.82200000  1.0
  Li+  Li2  1  0.34000000  0.50250000  0.82200000  1.0
  Li+  Li2  1  0.84000000  0.00250000  0.82200000  1.0
  Li+  Li2  1  0.84000000  0.50250000  0.82200000  1.0
  Li+  Li2  1  0.41000000  0.24750000  0.32200000  1.0
  Li+  Li2  1  0.41000000  0.74750000  0.32200000  1.0
  Li+  Li2  1  0.91000000  0.24750000  0.32200000  1.0
  Li+  Li2  1  0.91000000  0.74750000  0.32200000  1.0
  Li+  Li2  1  0.16000000  0.25250000  0.17800000  1.0
  Li+  Li2  1  0.16000000  0.75250000  0.17800000  1.0
  Li+  Li2  1  0.66000000  0.25250000  0.17800000  1.0
  Li+  Li2  1  0.66000000  0.75250000  0.17800000  1.0
  Li+  Li2  1  0.09000000  0.49750000  0.67800000  1.0
  Li+  Li2  1  0.09000000  0.99750000  0.67800000  1.0
  Li+  Li2  1  0.59000000  0.49750000  0.67800000  1.0
  Li+  Li2  1  0.59000000  0.99750000  0.67800000  1.0
  Li+  Li2  1  0.16000000  0.49750000  0.17800000  1.0
  Li+  Li2  1  0.16000000  0.99750000  0.17800000  1.0
  Li+  Li2  1  0.66000000  0.49750000  0.17800000  1.0
  Li+  Li2  1  0.66000000  0.99750000  0.17800000  1.0
  Li+  Li2  1  0.09000000  0.25250000  0.67800000  1.0
  Li+  Li2  1  0.09000000  0.75250000  0.67800000  1.0
  Li+  Li2  1  0.59000000  0.25250000  0.67800000  1.0
  Li+  Li2  1  0.59000000  0.75250000  0.67800000  1.0
  Li+  Li2  1  0.34000000  0.24750000  0.82200000  1.0
  Li+  Li2  1  0.34000000  0.74750000  0.82200000  1.0
  Li+  Li2  1  0.84000000  0.24750000  0.82200000  1.0
  Li+  Li2  1  0.84000000  0.74750000  0.82200000  1.0
  Li+  Li2  1  0.41000000  0.00250000  0.32200000  1.0
  Li+  Li2  1  0.41000000  0.50250000  0.32200000  1.0
  Li+  Li2  1  0.91000000  0.00250000  0.32200000  1.0
  Li+  Li2  1  0.91000000  0.50250000  0.32200000  1.0
  Li+  Li3  1  0.05300000  0.37500000  0.91200000  1.0
  Li+  Li3  1  0.05300000  0.87500000  0.91200000  1.0
  Li+  Li3  1  0.55300000  0.37500000  0.91200000  1.0
  Li+  Li3  1  0.55300000  0.87500000  0.91200000  1.0
  Li+  Li3  1  0.19700000  0.37500000  0.41200000  1.0
  Li+  Li3  1  0.19700000  0.87500000  0.41200000  1.0
  Li+  Li3  1  0.69700000  0.37500000  0.41200000  1.0
  Li+  Li3  1  0.69700000  0.87500000  0.41200000  1.0
  Li+  Li3  1  0.44700000  0.12500000  0.08800000  1.0
  Li+  Li3  1  0.44700000  0.62500000  0.08800000  1.0
  Li+  Li3  1  0.94700000  0.12500000  0.08800000  1.0
  Li+  Li3  1  0.94700000  0.62500000  0.08800000  1.0
  Li+  Li3  1  0.30300000  0.12500000  0.58800000  1.0
  Li+  Li3  1  0.30300000  0.62500000  0.58800000  1.0
  Li+  Li3  1  0.80300000  0.12500000  0.58800000  1.0
  Li+  Li3  1  0.80300000  0.62500000  0.58800000  1.0
  Sn4+  Sn1  1  0.42874000  0.37500000  0.09211000  1.0
  Sn4+  Sn1  1  0.42874000  0.87500000  0.09211000  1.0
  Sn4+  Sn1  1  0.92874000  0.37500000  0.09211000  1.0
  Sn4+  Sn1  1  0.92874000  0.87500000  0.09211000  1.0
  Sn4+  Sn1  1  0.32126000  0.37500000  0.59211000  1.0
  Sn4+  Sn1  1  0.32126000  0.87500000  0.59211000  1.0
  Sn4+  Sn1  1  0.82126000  0.37500000  0.59211000  1.0
  Sn4+  Sn1  1  0.82126000  0.87500000  0.59211000  1.0
  Sn4+  Sn1  1  0.07126000  0.12500000  0.90789000  1.0
  Sn4+  Sn1  1  0.07126000  0.62500000  0.90789000  1.0
  Sn4+  Sn1  1  0.57126000  0.12500000  0.90789000  1.0
  Sn4+  Sn1  1  0.57126000  0.62500000  0.90789000  1.0
  Sn4+  Sn1  1  0.17874000  0.12500000  0.40789000  1.0
  Sn4+  Sn1  1  0.17874000  0.62500000  0.40789000  1.0
  Sn4+  Sn1  1  0.67874000  0.12500000  0.40789000  1.0
  Sn4+  Sn1  1  0.67874000  0.62500000  0.40789000  1.0
  Se2-  Se1  1  0.36415000  0.37500000  0.93197000  1.0
  Se2-  Se1  1  0.36415000  0.87500000  0.93197000  1.0
  Se2-  Se1  1  0.86415000  0.37500000  0.93197000  1.0
  Se2-  Se1  1  0.86415000  0.87500000  0.93197000  1.0
  Se2-  Se1  1  0.38585000  0.37500000  0.43197000  1.0
  Se2-  Se1  1  0.38585000  0.87500000  0.43197000  1.0
  Se2-  Se1  1  0.88585000  0.37500000  0.43197000  1.0
  Se2-  Se1  1  0.88585000  0.87500000  0.43197000  1.0
  Se2-  Se1  1  0.13585000  0.12500000  0.06803000  1.0
  Se2-  Se1  1  0.13585000  0.62500000  0.06803000  1.0
  Se2-  Se1  1  0.63585000  0.12500000  0.06803000  1.0
  Se2-  Se1  1  0.63585000  0.62500000  0.06803000  1.0
  Se2-  Se1  1  0.11415000  0.12500000  0.56803000  1.0
  Se2-  Se1  1  0.11415000  0.62500000  0.56803000  1.0
  Se2-  Se1  1  0.61415000  0.12500000  0.56803000  1.0
  Se2-  Se1  1  0.61415000  0.62500000  0.56803000  1.0
  Se2-  Se2  1  0.35786000  0.00124000  0.16128000  1.0
  Se2-  Se2  1  0.35786000  0.50124000  0.16128000  1.0
  Se2-  Se2  1  0.85786000  0.00124000  0.16128000  1.0
  Se2-  Se2  1  0.85786000  0.50124000  0.16128000  1.0
  Se2-  Se2  1  0.39214000  0.24876000  0.66128000  1.0
  Se2-  Se2  1  0.39214000  0.74876000  0.66128000  1.0
  Se2-  Se2  1  0.89214000  0.24876000  0.66128000  1.0
  Se2-  Se2  1  0.89214000  0.74876000  0.66128000  1.0
  Se2-  Se2  1  0.14214000  0.25124000  0.83872000  1.0
  Se2-  Se2  1  0.14214000  0.75124000  0.83872000  1.0
  Se2-  Se2  1  0.64214000  0.25124000  0.83872000  1.0
  Se2-  Se2  1  0.64214000  0.75124000  0.83872000  1.0
  Se2-  Se2  1  0.10786000  0.49876000  0.33872000  1.0
  Se2-  Se2  1  0.10786000  0.99876000  0.33872000  1.0
  Se2-  Se2  1  0.60786000  0.49876000  0.33872000  1.0
  Se2-  Se2  1  0.60786000  0.99876000  0.33872000  1.0
  Se2-  Se2  1  0.14214000  0.49876000  0.83872000  1.0
  Se2-  Se2  1  0.14214000  0.99876000  0.83872000  1.0
  Se2-  Se2  1  0.64214000  0.49876000  0.83872000  1.0
  Se2-  Se2  1  0.64214000  0.99876000  0.83872000  1.0
  Se2-  Se2  1  0.10786000  0.25124000  0.33872000  1.0
  Se2-  Se2  1  0.10786000  0.75124000  0.33872000  1.0
  Se2-  Se2  1  0.60786000  0.25124000  0.33872000  1.0
  Se2-  Se2  1  0.60786000  0.75124000  0.33872000  1.0
  Se2-  Se2  1  0.35786000  0.24876000  0.16128000  1.0
  Se2-  Se2  1  0.35786000  0.74876000  0.16128000  1.0
  Se2-  Se2  1  0.85786000  0.24876000  0.16128000  1.0
  Se2-  Se2  1  0.85786000  0.74876000  0.16128000  1.0
  Se2-  Se2  1  0.39214000  0.00124000  0.66128000  1.0
  Se2-  Se2  1  0.39214000  0.50124000  0.66128000  1.0
  Se2-  Se2  1  0.89214000  0.00124000  0.66128000  1.0
  Se2-  Se2  1  0.89214000  0.50124000  0.66128000  1.0
  Se2-  Se3  1  0.11816500  0.37500000  0.08222000  1.0
  Se2-  Se3  1  0.11816500  0.87500000  0.08222000  1.0
  Se2-  Se3  1  0.61816500  0.37500000  0.08222000  1.0
  Se2-  Se3  1  0.61816500  0.87500000  0.08222000  1.0
  Se2-  Se3  1  0.13183500  0.37500000  0.58222000  1.0
  Se2-  Se3  1  0.13183500  0.87500000  0.58222000  1.0
  Se2-  Se3  1  0.63183500  0.37500000  0.58222000  1.0
  Se2-  Se3  1  0.63183500  0.87500000  0.58222000  1.0
  Se2-  Se3  1  0.38183500  0.12500000  0.91778000  1.0
  Se2-  Se3  1  0.38183500  0.62500000  0.91778000  1.0
  Se2-  Se3  1  0.88183500  0.12500000  0.91778000  1.0
  Se2-  Se3  1  0.88183500  0.62500000  0.91778000  1.0
  Se2-  Se3  1  0.36816500  0.12500000  0.41778000  1.0
  Se2-  Se3  1  0.36816500  0.62500000  0.41778000  1.0
  Se2-  Se3  1  0.86816500  0.12500000  0.41778000  1.0
  Se2-  Se3  1  0.86816500  0.62500000  0.41778000  1.0
