# generated using pymatgen
data_SrLi10La9O20
_symmetry_space_group_name_H-M   'P 1'
_cell_length_a   29.26050000
_cell_length_b   6.21520000
_cell_length_c   11.74960000
_cell_angle_alpha   90.00000000
_cell_angle_beta   77.52200000
_cell_angle_gamma   90.00000000
_symmetry_Int_Tables_number   1
_chemical_formula_structural   SrLi10La9O20
_chemical_formula_sum   'Sr4 Li40 La36 O80'
_cell_volume   2086.30780138
_cell_formula_units_Z   4
loop_
 _symmetry_equiv_pos_site_id
 _symmetry_equiv_pos_as_xyz
  1  'x, y, z'
loop_
 _atom_type_symbol
 _atom_type_oxidation_number
  Sr2+  2.0
  Li+  1.0
  La3+  3.0
  O2-  -2.0
loop_
 _atom_site_type_symbol
 _atom_site_label
 _atom_site_symmetry_multiplicity
 _atom_site_fract_x
 _atom_site_fract_y
 _atom_site_fract_z
 _atom_site_occupancy
  Sr2+  Sr0  1  0.96116400  0.56790000  0.14938000  1.0
  Sr2+  Sr1  1  0.13883600  0.06790000  0.35062000  1.0
  Sr2+  Sr2  1  0.33666648  0.06483917  0.85077639  1.0
  Sr2+  Sr3  1  0.63883600  0.43210000  0.85062000  1.0
  Li+  Li4  1  0.13261024  0.62557192  0.42982154  1.0
  Li+  Li5  1  0.13511600  0.62620000  0.92975000  1.0
  Li+  Li6  1  0.33511600  0.62620000  0.42975000  1.0
  Li+  Li7  1  0.33511600  0.62620000  0.92975000  1.0
  Li+  Li8  1  0.53511600  0.62620000  0.42975000  1.0
  Li+  Li9  1  0.53511600  0.62620000  0.92975000  1.0
  Li+  Li10  1  0.73511600  0.62620000  0.42975000  1.0
  Li+  Li11  1  0.73533530  0.62750101  0.93047006  1.0
  Li+  Li12  1  0.93511600  0.62620000  0.42975000  1.0
  Li+  Li13  1  0.93604744  0.62318818  0.92844064  1.0
  Li+  Li14  1  0.16308074  0.12276685  0.56981298  1.0
  Li+  Li15  1  0.16646006  0.12974027  0.07555334  1.0
  Li+  Li16  1  0.36065910  0.12613389  0.56719954  1.0
  Li+  Li17  1  0.36488400  0.12620000  0.07025000  1.0
  Li+  Li18  1  0.56488400  0.12620000  0.57025000  1.0
  Li+  Li19  1  0.56488400  0.12620000  0.07025000  1.0
  Li+  Li20  1  0.76488400  0.12620000  0.57025000  1.0
  Li+  Li21  1  0.76488400  0.12620000  0.07025000  1.0
  Li+  Li22  1  0.96488400  0.12620000  0.57025000  1.0
  Li+  Li23  1  0.96630030  0.12890245  0.07040186  1.0
  Li+  Li24  1  0.06078641  0.37289310  0.56823942  1.0
  Li+  Li25  1  0.06452201  0.37212254  0.06993434  1.0
  Li+  Li26  1  0.26488400  0.37380000  0.57025000  1.0
  Li+  Li27  1  0.26278575  0.37443919  0.07379055  1.0
  Li+  Li28  1  0.46488400  0.37380000  0.57025000  1.0
  Li+  Li29  1  0.46488400  0.37380000  0.07025000  1.0
  Li+  Li30  1  0.66410003  0.37548890  0.57027776  1.0
  Li+  Li31  1  0.66488400  0.37380000  0.07025000  1.0
  Li+  Li32  1  0.86488400  0.37380000  0.57025000  1.0
  Li+  Li33  1  0.87167369  0.37400537  0.07132495  1.0
  Li+  Li34  1  0.03511600  0.87380000  0.42975000  1.0
  Li+  Li35  1  0.03434521  0.87310111  0.93188377  1.0
  Li+  Li36  1  0.23511600  0.87380000  0.42975000  1.0
  Li+  Li37  1  0.23511600  0.87380000  0.92975000  1.0
  Li+  Li38  1  0.43511600  0.87380000  0.42975000  1.0
  Li+  Li39  1  0.43511600  0.87380000  0.92975000  1.0
  Li+  Li40  1  0.63488621  0.87609268  0.43187973  1.0
  Li+  Li41  1  0.63511600  0.87380000  0.92975000  1.0
  Li+  Li42  1  0.83511600  0.87380000  0.42975000  1.0
  Li+  Li43  1  0.83511600  0.87380000  0.92975000  1.0
  La3+  La44  1  0.16337624  0.56874824  0.64892027  1.0
  La3+  La45  1  0.16116400  0.56790000  0.14938000  1.0
  La3+  La46  1  0.36116400  0.56790000  0.64938000  1.0
  La3+  La47  1  0.36116400  0.56790000  0.14938000  1.0
  La3+  La48  1  0.56116400  0.56790000  0.64938000  1.0
  La3+  La49  1  0.56116400  0.56790000  0.14938000  1.0
  La3+  La50  1  0.76116400  0.56790000  0.64938000  1.0
  La3+  La51  1  0.76116400  0.56790000  0.14938000  1.0
  La3+  La52  1  0.96116400  0.56790000  0.64938000  1.0
  La3+  La53  1  0.13669695  0.06898679  0.84725451  1.0
  La3+  La54  1  0.33883600  0.06790000  0.35062000  1.0
  La3+  La55  1  0.53883600  0.06790000  0.35062000  1.0
  La3+  La56  1  0.53883600  0.06790000  0.85062000  1.0
  La3+  La57  1  0.73883600  0.06790000  0.35062000  1.0
  La3+  La58  1  0.73883600  0.06790000  0.85062000  1.0
  La3+  La59  1  0.94383234  0.07013987  0.35208988  1.0
  La3+  La60  1  0.93883600  0.06790000  0.85062000  1.0
  La3+  La61  1  0.03883600  0.43210000  0.35062000  1.0
  La3+  La62  1  0.03883600  0.43210000  0.85062000  1.0
  La3+  La63  1  0.23725740  0.43155069  0.34944691  1.0
  La3+  La64  1  0.23883600  0.43210000  0.85062000  1.0
  La3+  La65  1  0.43914062  0.43232206  0.35318656  1.0
  La3+  La66  1  0.43883600  0.43210000  0.85062000  1.0
  La3+  La67  1  0.63883600  0.43210000  0.35062000  1.0
  La3+  La68  1  0.83883600  0.43210000  0.35062000  1.0
  La3+  La69  1  0.83883600  0.43210000  0.85062000  1.0
  La3+  La70  1  0.06116400  0.93210000  0.64938000  1.0
  La3+  La71  1  0.06116400  0.93210000  0.14938000  1.0
  La3+  La72  1  0.26116400  0.93210000  0.64938000  1.0
  La3+  La73  1  0.26116400  0.93210000  0.14938000  1.0
  La3+  La74  1  0.46116400  0.93210000  0.64938000  1.0
  La3+  La75  1  0.46116400  0.93210000  0.14938000  1.0
  La3+  La76  1  0.66116400  0.93210000  0.64938000  1.0
  La3+  La77  1  0.66285959  0.93100542  0.14857347  1.0
  La3+  La78  1  0.86116400  0.93210000  0.64938000  1.0
  La3+  La79  1  0.86116400  0.93210000  0.14938000  1.0
  O2-  O80  1  0.19854000  0.76800000  0.29100000  1.0
  O2-  O81  1  0.19854000  0.76800000  0.79100000  1.0
  O2-  O82  1  0.39854000  0.76800000  0.29100000  1.0
  O2-  O83  1  0.39854000  0.76800000  0.79100000  1.0
  O2-  O84  1  0.59854000  0.76800000  0.29100000  1.0
  O2-  O85  1  0.59854000  0.76800000  0.79100000  1.0
  O2-  O86  1  0.79854000  0.76800000  0.29100000  1.0
  O2-  O87  1  0.79854000  0.76800000  0.79100000  1.0
  O2-  O88  1  0.99854000  0.76800000  0.29100000  1.0
  O2-  O89  1  0.99854000  0.76800000  0.79100000  1.0
  O2-  O90  1  0.10312497  0.26843139  0.70581954  1.0
  O2-  O91  1  0.10146000  0.26800000  0.20900000  1.0
  O2-  O92  1  0.30146000  0.26800000  0.70900000  1.0
  O2-  O93  1  0.30146000  0.26800000  0.20900000  1.0
  O2-  O94  1  0.50146000  0.26800000  0.70900000  1.0
  O2-  O95  1  0.50146000  0.26800000  0.20900000  1.0
  O2-  O96  1  0.70281446  0.26884544  0.70928666  1.0
  O2-  O97  1  0.70146000  0.26800000  0.20900000  1.0
  O2-  O98  1  0.90250114  0.26922801  0.70927628  1.0
  O2-  O99  1  0.90146000  0.26800000  0.20900000  1.0
  O2-  O100  1  0.00146000  0.23200000  0.70900000  1.0
  O2-  O101  1  0.00146000  0.23200000  0.20900000  1.0
  O2-  O102  1  0.20146000  0.23200000  0.70900000  1.0
  O2-  O103  1  0.20146000  0.23200000  0.20900000  1.0
  O2-  O104  1  0.40165529  0.22954551  0.71075218  1.0
  O2-  O105  1  0.40146000  0.23200000  0.20900000  1.0
  O2-  O106  1  0.60146000  0.23200000  0.70900000  1.0
  O2-  O107  1  0.60271584  0.23661292  0.20575644  1.0
  O2-  O108  1  0.80146000  0.23200000  0.70900000  1.0
  O2-  O109  1  0.80146000  0.23200000  0.20900000  1.0
  O2-  O110  1  0.09854000  0.73200000  0.29100000  1.0
  O2-  O111  1  0.09854000  0.73200000  0.79100000  1.0
  O2-  O112  1  0.29854000  0.73200000  0.29100000  1.0
  O2-  O113  1  0.29854000  0.73200000  0.79100000  1.0
  O2-  O114  1  0.49854000  0.73200000  0.29100000  1.0
  O2-  O115  1  0.49854000  0.73200000  0.79100000  1.0
  O2-  O116  1  0.69897045  0.72953824  0.29176275  1.0
  O2-  O117  1  0.69854000  0.73200000  0.79100000  1.0
  O2-  O118  1  0.89854000  0.73200000  0.29100000  1.0
  O2-  O119  1  0.89803517  0.73204790  0.79544041  1.0
  O2-  O120  1  0.04410000  0.62670000  0.53785000  1.0
  O2-  O121  1  0.04346742  0.62298087  0.04155812  1.0
  O2-  O122  1  0.24410000  0.62670000  0.53785000  1.0
  O2-  O123  1  0.24410000  0.62670000  0.03785000  1.0
  O2-  O124  1  0.44410000  0.62670000  0.53785000  1.0
  O2-  O125  1  0.44101620  0.62357925  0.03614088  1.0
  O2-  O126  1  0.64410000  0.62670000  0.53785000  1.0
  O2-  O127  1  0.64410000  0.62670000  0.03785000  1.0
  O2-  O128  1  0.84410000  0.62670000  0.53785000  1.0
  O2-  O129  1  0.84410000  0.62670000  0.03785000  1.0
  O2-  O130  1  0.05590000  0.12670000  0.46215000  1.0
  O2-  O131  1  0.05590000  0.12670000  0.96215000  1.0
  O2-  O132  1  0.25590000  0.12670000  0.46215000  1.0
  O2-  O133  1  0.25095096  0.12495532  0.96029227  1.0
  O2-  O134  1  0.45350075  0.12104186  0.46210730  1.0
  O2-  O135  1  0.45590000  0.12670000  0.96215000  1.0
  O2-  O136  1  0.65590000  0.12670000  0.46215000  1.0
  O2-  O137  1  0.65590000  0.12670000  0.96215000  1.0
  O2-  O138  1  0.85508644  0.12402081  0.46233585  1.0
  O2-  O139  1  0.85590000  0.12670000  0.96215000  1.0
  O2-  O140  1  0.15590000  0.37330000  0.46215000  1.0
  O2-  O141  1  0.15756128  0.37669048  0.96423456  1.0
  O2-  O142  1  0.35848819  0.37201847  0.46124980  1.0
  O2-  O143  1  0.35590000  0.37330000  0.96215000  1.0
  O2-  O144  1  0.55590000  0.37330000  0.46215000  1.0
  O2-  O145  1  0.55590000  0.37330000  0.96215000  1.0
  O2-  O146  1  0.75590000  0.37330000  0.46215000  1.0
  O2-  O147  1  0.75590000  0.37330000  0.96215000  1.0
  O2-  O148  1  0.95590000  0.37330000  0.46215000  1.0
  O2-  O149  1  0.95442390  0.37521294  0.96253962  1.0
  O2-  O150  1  0.14410000  0.87330000  0.53785000  1.0
  O2-  O151  1  0.14168663  0.87426332  0.03461224  1.0
  O2-  O152  1  0.34410000  0.87330000  0.53785000  1.0
  O2-  O153  1  0.34410000  0.87330000  0.03785000  1.0
  O2-  O154  1  0.54394978  0.87024723  0.53880082  1.0
  O2-  O155  1  0.54410000  0.87330000  0.03785000  1.0
  O2-  O156  1  0.74583111  0.87609480  0.53640077  1.0
  O2-  O157  1  0.74410000  0.87330000  0.03785000  1.0
  O2-  O158  1  0.94410000  0.87330000  0.53785000  1.0
  O2-  O159  1  0.94872348  0.87088933  0.03977950  1.0
