# generated using pymatgen
data_SrLi10La9O20
_symmetry_space_group_name_H-M   'P 1'
_cell_length_a   11.72455284
_cell_length_b   29.19812404
_cell_length_c   6.20195077
_cell_angle_alpha   90.00000000
_cell_angle_beta   90.00000000
_cell_angle_gamma   102.47800000
_symmetry_Int_Tables_number   1
_chemical_formula_structural   SrLi10La9O20
_chemical_formula_sum   'Sr4 Li40 La36 O80'
_cell_volume   2072.99378823
_cell_formula_units_Z   4
loop_
 _symmetry_equiv_pos_site_id
 _symmetry_equiv_pos_as_xyz
  1  'x, y, z'
loop_
 _atom_type_symbol
 _atom_type_oxidation_number
  Sr2+  2.0
  Li+  1.0
  La3+  3.0
  O2-  -2.0
loop_
 _atom_site_type_symbol
 _atom_site_label
 _atom_site_symmetry_multiplicity
 _atom_site_fract_x
 _atom_site_fract_y
 _atom_site_fract_z
 _atom_site_occupancy
  Sr2+  Sr0  1  0.39938000  0.70550267  0.43210000  1.0
  Sr2+  Sr1  1  0.60062000  0.52783067  0.93210000  1.0
  Sr2+  Sr2  1  0.10062000  0.32783067  0.93210000  1.0
  Sr2+  Sr3  1  0.10062000  0.02783067  0.56790000  1.0
  Li+  Li4  1  0.67975000  0.53155067  0.37380000  1.0
  Li+  Li5  1  0.17975000  0.53155067  0.37380000  1.0
  Li+  Li6  1  0.67975000  0.33155067  0.37380000  1.0
  Li+  Li7  1  0.17975000  0.33155067  0.37380000  1.0
  Li+  Li8  1  0.67975000  0.13155067  0.37380000  1.0
  Li+  Li9  1  0.17975000  0.13155067  0.37380000  1.0
  Li+  Li10  1  0.67975000  0.93155067  0.37380000  1.0
  Li+  Li11  1  0.17975000  0.93155067  0.37380000  1.0
  Li+  Li12  1  0.67975000  0.73155067  0.37380000  1.0
  Li+  Li13  1  0.17975000  0.73155067  0.37380000  1.0
  Li+  Li14  1  0.82025000  0.50178267  0.87380000  1.0
  Li+  Li15  1  0.32025000  0.50178267  0.87380000  1.0
  Li+  Li16  1  0.82025000  0.30178267  0.87380000  1.0
  Li+  Li17  1  0.32025000  0.30178267  0.87380000  1.0
  Li+  Li18  1  0.82025000  0.10178267  0.87380000  1.0
  Li+  Li19  1  0.32025000  0.10178267  0.87380000  1.0
  Li+  Li20  1  0.82025000  0.90178267  0.87380000  1.0
  Li+  Li21  1  0.32025000  0.90178267  0.87380000  1.0
  Li+  Li22  1  0.82025000  0.70178267  0.87380000  1.0
  Li+  Li23  1  0.32025000  0.70178267  0.87380000  1.0
  Li+  Li24  1  0.82025000  0.60178267  0.62620000  1.0
  Li+  Li25  1  0.32025000  0.60178267  0.62620000  1.0
  Li+  Li26  1  0.82025000  0.40178267  0.62620000  1.0
  Li+  Li27  1  0.32025000  0.40178267  0.62620000  1.0
  Li+  Li28  1  0.82025000  0.20178267  0.62620000  1.0
  Li+  Li29  1  0.32025000  0.20178267  0.62620000  1.0
  Li+  Li30  1  0.82025000  0.00178267  0.62620000  1.0
  Li+  Li31  1  0.32025000  0.00178267  0.62620000  1.0
  Li+  Li32  1  0.82025000  0.80178267  0.62620000  1.0
  Li+  Li33  1  0.32025000  0.80178267  0.62620000  1.0
  Li+  Li34  1  0.67975000  0.63155067  0.12620000  1.0
  Li+  Li35  1  0.17975000  0.63155067  0.12620000  1.0
  Li+  Li36  1  0.67975000  0.43155067  0.12620000  1.0
  Li+  Li37  1  0.17975000  0.43155067  0.12620000  1.0
  Li+  Li38  1  0.67975000  0.23155067  0.12620000  1.0
  Li+  Li39  1  0.17975000  0.23155067  0.12620000  1.0
  Li+  Li40  1  0.67975000  0.03155067  0.12620000  1.0
  Li+  Li41  1  0.17975000  0.03155067  0.12620000  1.0
  Li+  Li42  1  0.67975000  0.83155067  0.12620000  1.0
  Li+  Li43  1  0.17975000  0.83155067  0.12620000  1.0
  La3+  La44  1  0.89938000  0.50550267  0.43210000  1.0
  La3+  La45  1  0.39938000  0.50550267  0.43210000  1.0
  La3+  La46  1  0.89938000  0.30550267  0.43210000  1.0
  La3+  La47  1  0.39938000  0.30550267  0.43210000  1.0
  La3+  La48  1  0.89938000  0.10550267  0.43210000  1.0
  La3+  La49  1  0.39938000  0.10550267  0.43210000  1.0
  La3+  La50  1  0.89938000  0.90550267  0.43210000  1.0
  La3+  La51  1  0.39938000  0.90550267  0.43210000  1.0
  La3+  La52  1  0.89938000  0.70550267  0.43210000  1.0
  La3+  La53  1  0.10062000  0.52783067  0.93210000  1.0
  La3+  La54  1  0.60062000  0.32783067  0.93210000  1.0
  La3+  La55  1  0.60062000  0.12783067  0.93210000  1.0
  La3+  La56  1  0.10062000  0.12783067  0.93210000  1.0
  La3+  La57  1  0.60062000  0.92783067  0.93210000  1.0
  La3+  La58  1  0.10062000  0.92783067  0.93210000  1.0
  La3+  La59  1  0.60062000  0.72783067  0.93210000  1.0
  La3+  La60  1  0.10062000  0.72783067  0.93210000  1.0
  La3+  La61  1  0.60062000  0.62783067  0.56790000  1.0
  La3+  La62  1  0.10062000  0.62783067  0.56790000  1.0
  La3+  La63  1  0.60062000  0.42783067  0.56790000  1.0
  La3+  La64  1  0.10062000  0.42783067  0.56790000  1.0
  La3+  La65  1  0.60062000  0.22783067  0.56790000  1.0
  La3+  La66  1  0.10062000  0.22783067  0.56790000  1.0
  La3+  La67  1  0.60062000  0.02783067  0.56790000  1.0
  La3+  La68  1  0.60062000  0.82783067  0.56790000  1.0
  La3+  La69  1  0.10062000  0.82783067  0.56790000  1.0
  La3+  La70  1  0.89938000  0.60550267  0.06790000  1.0
  La3+  La71  1  0.39938000  0.60550267  0.06790000  1.0
  La3+  La72  1  0.89938000  0.40550267  0.06790000  1.0
  La3+  La73  1  0.39938000  0.40550267  0.06790000  1.0
  La3+  La74  1  0.89938000  0.20550267  0.06790000  1.0
  La3+  La75  1  0.39938000  0.20550267  0.06790000  1.0
  La3+  La76  1  0.89938000  0.00550267  0.06790000  1.0
  La3+  La77  1  0.39938000  0.00550267  0.06790000  1.0
  La3+  La78  1  0.89938000  0.80550267  0.06790000  1.0
  La3+  La79  1  0.39938000  0.80550267  0.06790000  1.0
  O2-  O80  1  0.54100000  0.46812667  0.23200000  1.0
  O2-  O81  1  0.04100000  0.46812667  0.23200000  1.0
  O2-  O82  1  0.54100000  0.26812667  0.23200000  1.0
  O2-  O83  1  0.04100000  0.26812667  0.23200000  1.0
  O2-  O84  1  0.54100000  0.06812667  0.23200000  1.0
  O2-  O85  1  0.04100000  0.06812667  0.23200000  1.0
  O2-  O86  1  0.54100000  0.86812667  0.23200000  1.0
  O2-  O87  1  0.04100000  0.86812667  0.23200000  1.0
  O2-  O88  1  0.54100000  0.66812667  0.23200000  1.0
  O2-  O89  1  0.04100000  0.66812667  0.23200000  1.0
  O2-  O90  1  0.95900000  0.56520667  0.73200000  1.0
  O2-  O91  1  0.45900000  0.56520667  0.73200000  1.0
  O2-  O92  1  0.95900000  0.36520667  0.73200000  1.0
  O2-  O93  1  0.45900000  0.36520667  0.73200000  1.0
  O2-  O94  1  0.95900000  0.16520667  0.73200000  1.0
  O2-  O95  1  0.45900000  0.16520667  0.73200000  1.0
  O2-  O96  1  0.95900000  0.96520667  0.73200000  1.0
  O2-  O97  1  0.45900000  0.96520667  0.73200000  1.0
  O2-  O98  1  0.95900000  0.76520667  0.73200000  1.0
  O2-  O99  1  0.45900000  0.76520667  0.73200000  1.0
  O2-  O100  1  0.95900000  0.66520667  0.76800000  1.0
  O2-  O101  1  0.45900000  0.66520667  0.76800000  1.0
  O2-  O102  1  0.95900000  0.46520667  0.76800000  1.0
  O2-  O103  1  0.45900000  0.46520667  0.76800000  1.0
  O2-  O104  1  0.95900000  0.26520667  0.76800000  1.0
  O2-  O105  1  0.45900000  0.26520667  0.76800000  1.0
  O2-  O106  1  0.95900000  0.06520667  0.76800000  1.0
  O2-  O107  1  0.45900000  0.06520667  0.76800000  1.0
  O2-  O108  1  0.95900000  0.86520667  0.76800000  1.0
  O2-  O109  1  0.45900000  0.86520667  0.76800000  1.0
  O2-  O110  1  0.54100000  0.56812667  0.26800000  1.0
  O2-  O111  1  0.04100000  0.56812667  0.26800000  1.0
  O2-  O112  1  0.54100000  0.36812667  0.26800000  1.0
  O2-  O113  1  0.04100000  0.36812667  0.26800000  1.0
  O2-  O114  1  0.54100000  0.16812667  0.26800000  1.0
  O2-  O115  1  0.04100000  0.16812667  0.26800000  1.0
  O2-  O116  1  0.54100000  0.96812667  0.26800000  1.0
  O2-  O117  1  0.04100000  0.96812667  0.26800000  1.0
  O2-  O118  1  0.54100000  0.76812667  0.26800000  1.0
  O2-  O119  1  0.04100000  0.76812667  0.26800000  1.0
  O2-  O120  1  0.78785000  0.62256667  0.37330000  1.0
  O2-  O121  1  0.28785000  0.62256667  0.37330000  1.0
  O2-  O122  1  0.78785000  0.42256667  0.37330000  1.0
  O2-  O123  1  0.28785000  0.42256667  0.37330000  1.0
  O2-  O124  1  0.78785000  0.22256667  0.37330000  1.0
  O2-  O125  1  0.28785000  0.22256667  0.37330000  1.0
  O2-  O126  1  0.78785000  0.02256667  0.37330000  1.0
  O2-  O127  1  0.28785000  0.02256667  0.37330000  1.0
  O2-  O128  1  0.78785000  0.82256667  0.37330000  1.0
  O2-  O129  1  0.28785000  0.82256667  0.37330000  1.0
  O2-  O130  1  0.71215000  0.61076667  0.87330000  1.0
  O2-  O131  1  0.21215000  0.61076667  0.87330000  1.0
  O2-  O132  1  0.71215000  0.41076667  0.87330000  1.0
  O2-  O133  1  0.21215000  0.41076667  0.87330000  1.0
  O2-  O134  1  0.71215000  0.21076667  0.87330000  1.0
  O2-  O135  1  0.21215000  0.21076667  0.87330000  1.0
  O2-  O136  1  0.71215000  0.01076667  0.87330000  1.0
  O2-  O137  1  0.21215000  0.01076667  0.87330000  1.0
  O2-  O138  1  0.71215000  0.81076667  0.87330000  1.0
  O2-  O139  1  0.21215000  0.81076667  0.87330000  1.0
  O2-  O140  1  0.71215000  0.51076667  0.62670000  1.0
  O2-  O141  1  0.21215000  0.51076667  0.62670000  1.0
  O2-  O142  1  0.71215000  0.31076667  0.62670000  1.0
  O2-  O143  1  0.21215000  0.31076667  0.62670000  1.0
  O2-  O144  1  0.71215000  0.11076667  0.62670000  1.0
  O2-  O145  1  0.21215000  0.11076667  0.62670000  1.0
  O2-  O146  1  0.71215000  0.91076667  0.62670000  1.0
  O2-  O147  1  0.21215000  0.91076667  0.62670000  1.0
  O2-  O148  1  0.71215000  0.71076667  0.62670000  1.0
  O2-  O149  1  0.21215000  0.71076667  0.62670000  1.0
  O2-  O150  1  0.78785000  0.52256667  0.12670000  1.0
  O2-  O151  1  0.28785000  0.52256667  0.12670000  1.0
  O2-  O152  1  0.78785000  0.32256667  0.12670000  1.0
  O2-  O153  1  0.28785000  0.32256667  0.12670000  1.0
  O2-  O154  1  0.78785000  0.12256667  0.12670000  1.0
  O2-  O155  1  0.28785000  0.12256667  0.12670000  1.0
  O2-  O156  1  0.78785000  0.92256667  0.12670000  1.0
  O2-  O157  1  0.28785000  0.92256667  0.12670000  1.0
  O2-  O158  1  0.78785000  0.72256667  0.12670000  1.0
  O2-  O159  1  0.28785000  0.72256667  0.12670000  1.0
