# generated using pymatgen
data_SrLi10La9O20
_symmetry_space_group_name_H-M   'P 1'
_cell_length_a   29.26050000
_cell_length_b   11.74960000
_cell_length_c   6.21520000
_cell_angle_alpha   90.00000000
_cell_angle_beta   90.00000000
_cell_angle_gamma   102.47800000
_symmetry_Int_Tables_number   1
_chemical_formula_structural   SrLi10La9O20
_chemical_formula_sum   'Sr4 Li40 La36 O80'
_cell_volume   2086.30780138
_cell_formula_units_Z   4
loop_
 _symmetry_equiv_pos_site_id
 _symmetry_equiv_pos_as_xyz
  1  'x, y, z'
loop_
 _atom_type_symbol
 _atom_type_oxidation_number
  Sr2+  2.0
  Li+  1.0
  La3+  3.0
  O2-  -2.0
loop_
 _atom_site_type_symbol
 _atom_site_label
 _atom_site_symmetry_multiplicity
 _atom_site_fract_x
 _atom_site_fract_y
 _atom_site_fract_z
 _atom_site_occupancy
  Sr2+  Sr0  1  0.96116400  0.60062000  0.43210000  1.0
  Sr2+  Sr1  1  0.13883600  0.39938000  0.93210000  1.0
  Sr2+  Sr2  1  0.33883600  0.89938000  0.93210000  1.0
  Sr2+  Sr3  1  0.63883600  0.89938000  0.56790000  1.0
  Li+  Li2  1  0.13511600  0.32025000  0.37380000  1.0
  Li+  Li2  1  0.13511600  0.82025000  0.37380000  1.0
  Li+  Li2  1  0.33511600  0.32025000  0.37380000  1.0
  Li+  Li2  1  0.33511600  0.82025000  0.37380000  1.0
  Li+  Li2  1  0.53511600  0.32025000  0.37380000  1.0
  Li+  Li2  1  0.53511600  0.82025000  0.37380000  1.0
  Li+  Li2  1  0.73511600  0.32025000  0.37380000  1.0
  Li+  Li2  1  0.73511600  0.82025000  0.37380000  1.0
  Li+  Li2  1  0.93511600  0.32025000  0.37380000  1.0
  Li+  Li2  1  0.93511600  0.82025000  0.37380000  1.0
  Li+  Li2  1  0.16488400  0.17975000  0.87380000  1.0
  Li+  Li2  1  0.16488400  0.67975000  0.87380000  1.0
  Li+  Li2  1  0.36488400  0.17975000  0.87380000  1.0
  Li+  Li2  1  0.36488400  0.67975000  0.87380000  1.0
  Li+  Li2  1  0.56488400  0.17975000  0.87380000  1.0
  Li+  Li2  1  0.56488400  0.67975000  0.87380000  1.0
  Li+  Li2  1  0.76488400  0.17975000  0.87380000  1.0
  Li+  Li2  1  0.76488400  0.67975000  0.87380000  1.0
  Li+  Li2  1  0.96488400  0.17975000  0.87380000  1.0
  Li+  Li2  1  0.96488400  0.67975000  0.87380000  1.0
  Li+  Li2  1  0.06488400  0.17975000  0.62620000  1.0
  Li+  Li2  1  0.06488400  0.67975000  0.62620000  1.0
  Li+  Li2  1  0.26488400  0.17975000  0.62620000  1.0
  Li+  Li2  1  0.26488400  0.67975000  0.62620000  1.0
  Li+  Li2  1  0.46488400  0.17975000  0.62620000  1.0
  Li+  Li2  1  0.46488400  0.67975000  0.62620000  1.0
  Li+  Li2  1  0.66488400  0.17975000  0.62620000  1.0
  Li+  Li2  1  0.66488400  0.67975000  0.62620000  1.0
  Li+  Li2  1  0.86488400  0.17975000  0.62620000  1.0
  Li+  Li2  1  0.86488400  0.67975000  0.62620000  1.0
  Li+  Li2  1  0.03511600  0.32025000  0.12620000  1.0
  Li+  Li2  1  0.03511600  0.82025000  0.12620000  1.0
  Li+  Li2  1  0.23511600  0.32025000  0.12620000  1.0
  Li+  Li2  1  0.23511600  0.82025000  0.12620000  1.0
  Li+  Li2  1  0.43511600  0.32025000  0.12620000  1.0
  Li+  Li2  1  0.43511600  0.82025000  0.12620000  1.0
  Li+  Li2  1  0.63511600  0.32025000  0.12620000  1.0
  Li+  Li2  1  0.63511600  0.82025000  0.12620000  1.0
  Li+  Li2  1  0.83511600  0.32025000  0.12620000  1.0
  Li+  Li2  1  0.83511600  0.82025000  0.12620000  1.0
  La3+  La44  1  0.16116400  0.10062000  0.43210000  1.0
  La3+  La45  1  0.16116400  0.60062000  0.43210000  1.0
  La3+  La46  1  0.36116400  0.10062000  0.43210000  1.0
  La3+  La47  1  0.36116400  0.60062000  0.43210000  1.0
  La3+  La48  1  0.56116400  0.10062000  0.43210000  1.0
  La3+  La49  1  0.56116400  0.60062000  0.43210000  1.0
  La3+  La50  1  0.76116400  0.10062000  0.43210000  1.0
  La3+  La51  1  0.76116400  0.60062000  0.43210000  1.0
  La3+  La52  1  0.96116400  0.10062000  0.43210000  1.0
  La3+  La53  1  0.13883600  0.89938000  0.93210000  1.0
  La3+  La54  1  0.33883600  0.39938000  0.93210000  1.0
  La3+  La55  1  0.53883600  0.39938000  0.93210000  1.0
  La3+  La56  1  0.53883600  0.89938000  0.93210000  1.0
  La3+  La57  1  0.73883600  0.39938000  0.93210000  1.0
  La3+  La58  1  0.73883600  0.89938000  0.93210000  1.0
  La3+  La59  1  0.93883600  0.39938000  0.93210000  1.0
  La3+  La60  1  0.93883600  0.89938000  0.93210000  1.0
  La3+  La61  1  0.03883600  0.39938000  0.56790000  1.0
  La3+  La62  1  0.03883600  0.89938000  0.56790000  1.0
  La3+  La63  1  0.23883600  0.39938000  0.56790000  1.0
  La3+  La64  1  0.23883600  0.89938000  0.56790000  1.0
  La3+  La65  1  0.43883600  0.39938000  0.56790000  1.0
  La3+  La66  1  0.43883600  0.89938000  0.56790000  1.0
  La3+  La67  1  0.63883600  0.39938000  0.56790000  1.0
  La3+  La68  1  0.83883600  0.39938000  0.56790000  1.0
  La3+  La69  1  0.83883600  0.89938000  0.56790000  1.0
  La3+  La70  1  0.06116400  0.10062000  0.06790000  1.0
  La3+  La71  1  0.06116400  0.60062000  0.06790000  1.0
  La3+  La72  1  0.26116400  0.10062000  0.06790000  1.0
  La3+  La73  1  0.26116400  0.60062000  0.06790000  1.0
  La3+  La74  1  0.46116400  0.10062000  0.06790000  1.0
  La3+  La75  1  0.46116400  0.60062000  0.06790000  1.0
  La3+  La76  1  0.66116400  0.10062000  0.06790000  1.0
  La3+  La77  1  0.66116400  0.60062000  0.06790000  1.0
  La3+  La78  1  0.86116400  0.10062000  0.06790000  1.0
  La3+  La79  1  0.86116400  0.60062000  0.06790000  1.0
  O2-  O1  1  0.19854000  0.45900000  0.23200000  1.0
  O2-  O1  1  0.19854000  0.95900000  0.23200000  1.0
  O2-  O1  1  0.39854000  0.45900000  0.23200000  1.0
  O2-  O1  1  0.39854000  0.95900000  0.23200000  1.0
  O2-  O1  1  0.59854000  0.45900000  0.23200000  1.0
  O2-  O1  1  0.59854000  0.95900000  0.23200000  1.0
  O2-  O1  1  0.79854000  0.45900000  0.23200000  1.0
  O2-  O1  1  0.79854000  0.95900000  0.23200000  1.0
  O2-  O1  1  0.99854000  0.45900000  0.23200000  1.0
  O2-  O1  1  0.99854000  0.95900000  0.23200000  1.0
  O2-  O1  1  0.10146000  0.04100000  0.73200000  1.0
  O2-  O1  1  0.10146000  0.54100000  0.73200000  1.0
  O2-  O1  1  0.30146000  0.04100000  0.73200000  1.0
  O2-  O1  1  0.30146000  0.54100000  0.73200000  1.0
  O2-  O1  1  0.50146000  0.04100000  0.73200000  1.0
  O2-  O1  1  0.50146000  0.54100000  0.73200000  1.0
  O2-  O1  1  0.70146000  0.04100000  0.73200000  1.0
  O2-  O1  1  0.70146000  0.54100000  0.73200000  1.0
  O2-  O1  1  0.90146000  0.04100000  0.73200000  1.0
  O2-  O1  1  0.90146000  0.54100000  0.73200000  1.0
  O2-  O1  1  0.00146000  0.04100000  0.76800000  1.0
  O2-  O1  1  0.00146000  0.54100000  0.76800000  1.0
  O2-  O1  1  0.20146000  0.04100000  0.76800000  1.0
  O2-  O1  1  0.20146000  0.54100000  0.76800000  1.0
  O2-  O1  1  0.40146000  0.04100000  0.76800000  1.0
  O2-  O1  1  0.40146000  0.54100000  0.76800000  1.0
  O2-  O1  1  0.60146000  0.04100000  0.76800000  1.0
  O2-  O1  1  0.60146000  0.54100000  0.76800000  1.0
  O2-  O1  1  0.80146000  0.04100000  0.76800000  1.0
  O2-  O1  1  0.80146000  0.54100000  0.76800000  1.0
  O2-  O1  1  0.09854000  0.45900000  0.26800000  1.0
  O2-  O1  1  0.09854000  0.95900000  0.26800000  1.0
  O2-  O1  1  0.29854000  0.45900000  0.26800000  1.0
  O2-  O1  1  0.29854000  0.95900000  0.26800000  1.0
  O2-  O1  1  0.49854000  0.45900000  0.26800000  1.0
  O2-  O1  1  0.49854000  0.95900000  0.26800000  1.0
  O2-  O1  1  0.69854000  0.45900000  0.26800000  1.0
  O2-  O1  1  0.69854000  0.95900000  0.26800000  1.0
  O2-  O1  1  0.89854000  0.45900000  0.26800000  1.0
  O2-  O1  1  0.89854000  0.95900000  0.26800000  1.0
  O2-  O2  1  0.04410000  0.21215000  0.37330000  1.0
  O2-  O2  1  0.04410000  0.71215000  0.37330000  1.0
  O2-  O2  1  0.24410000  0.21215000  0.37330000  1.0
  O2-  O2  1  0.24410000  0.71215000  0.37330000  1.0
  O2-  O2  1  0.44410000  0.21215000  0.37330000  1.0
  O2-  O2  1  0.44410000  0.71215000  0.37330000  1.0
  O2-  O2  1  0.64410000  0.21215000  0.37330000  1.0
  O2-  O2  1  0.64410000  0.71215000  0.37330000  1.0
  O2-  O2  1  0.84410000  0.21215000  0.37330000  1.0
  O2-  O2  1  0.84410000  0.71215000  0.37330000  1.0
  O2-  O2  1  0.05590000  0.28785000  0.87330000  1.0
  O2-  O2  1  0.05590000  0.78785000  0.87330000  1.0
  O2-  O2  1  0.25590000  0.28785000  0.87330000  1.0
  O2-  O2  1  0.25590000  0.78785000  0.87330000  1.0
  O2-  O2  1  0.45590000  0.28785000  0.87330000  1.0
  O2-  O2  1  0.45590000  0.78785000  0.87330000  1.0
  O2-  O2  1  0.65590000  0.28785000  0.87330000  1.0
  O2-  O2  1  0.65590000  0.78785000  0.87330000  1.0
  O2-  O2  1  0.85590000  0.28785000  0.87330000  1.0
  O2-  O2  1  0.85590000  0.78785000  0.87330000  1.0
  O2-  O2  1  0.15590000  0.28785000  0.62670000  1.0
  O2-  O2  1  0.15590000  0.78785000  0.62670000  1.0
  O2-  O2  1  0.35590000  0.28785000  0.62670000  1.0
  O2-  O2  1  0.35590000  0.78785000  0.62670000  1.0
  O2-  O2  1  0.55590000  0.28785000  0.62670000  1.0
  O2-  O2  1  0.55590000  0.78785000  0.62670000  1.0
  O2-  O2  1  0.75590000  0.28785000  0.62670000  1.0
  O2-  O2  1  0.75590000  0.78785000  0.62670000  1.0
  O2-  O2  1  0.95590000  0.28785000  0.62670000  1.0
  O2-  O2  1  0.95590000  0.78785000  0.62670000  1.0
  O2-  O2  1  0.14410000  0.21215000  0.12670000  1.0
  O2-  O2  1  0.14410000  0.71215000  0.12670000  1.0
  O2-  O2  1  0.34410000  0.21215000  0.12670000  1.0
  O2-  O2  1  0.34410000  0.71215000  0.12670000  1.0
  O2-  O2  1  0.54410000  0.21215000  0.12670000  1.0
  O2-  O2  1  0.54410000  0.71215000  0.12670000  1.0
  O2-  O2  1  0.74410000  0.21215000  0.12670000  1.0
  O2-  O2  1  0.74410000  0.71215000  0.12670000  1.0
  O2-  O2  1  0.94410000  0.21215000  0.12670000  1.0
  O2-  O2  1  0.94410000  0.71215000  0.12670000  1.0
