# generated using pymatgen
data_Li37Zn7Ga3(PO4)20
_symmetry_space_group_name_H-M   'P 1'
_cell_length_a   24.69550000
_cell_length_b   6.48030000
_cell_length_c   10.14680000
_cell_angle_alpha   90.00000000
_cell_angle_beta   90.00000000
_cell_angle_gamma   90.00000000
_symmetry_Int_Tables_number   1
_chemical_formula_structural   Li37Zn7Ga3(PO4)20
_chemical_formula_sum   'Li37 Zn7 Ga3 P20 O80'
_cell_volume   1623.83551420
_cell_formula_units_Z   1
loop_
 _symmetry_equiv_pos_site_id
 _symmetry_equiv_pos_as_xyz
  1  'x, y, z'
loop_
 _atom_type_symbol
 _atom_type_oxidation_number
  Li+  1.0
  Zn2+  2.0
  Ga3+  3.0
  P5+  5.0
  O2-  -2.0
loop_
 _atom_site_type_symbol
 _atom_site_label
 _atom_site_symmetry_multiplicity
 _atom_site_fract_x
 _atom_site_fract_y
 _atom_site_fract_z
 _atom_site_occupancy
  Li+  Li0  1  0.15360000  0.03200000  0.67800000  1.0
  Li+  Li1  1  0.95360000  0.03200000  0.67800000  1.0
  Li+  Li2  1  0.74640000  0.96800000  0.17800000  1.0
  Li+  Li3  1  0.05360000  0.46800000  0.32200000  1.0
  Li+  Li4  1  0.25360000  0.46800000  0.32200000  1.0
  Li+  Li5  1  0.45360000  0.46800000  0.32200000  1.0
  Li+  Li6  1  0.24640000  0.53200000  0.82200000  1.0
  Li+  Li7  1  0.16348000  0.74620000  0.92160000  1.0
  Li+  Li8  1  0.36348000  0.74620000  0.92160000  1.0
  Li+  Li9  1  0.76348000  0.74620000  0.92160000  1.0
  Li+  Li10  1  0.96348000  0.74620000  0.92160000  1.0
  Li+  Li11  1  0.33652000  0.25380000  0.42160000  1.0
  Li+  Li12  1  0.73652000  0.25380000  0.42160000  1.0
  Li+  Li13  1  0.93652000  0.25380000  0.42160000  1.0
  Li+  Li14  1  0.06348000  0.75380000  0.07840000  1.0
  Li+  Li15  1  0.26348000  0.75380000  0.07840000  1.0
  Li+  Li16  1  0.46348000  0.75380000  0.07840000  1.0
  Li+  Li17  1  0.66348000  0.75380000  0.07840000  1.0
  Li+  Li18  1  0.86348000  0.75380000  0.07840000  1.0
  Li+  Li19  1  0.03652000  0.24620000  0.57840000  1.0
  Li+  Li20  1  0.23652000  0.24620000  0.57840000  1.0
  Li+  Li21  1  0.43652000  0.24620000  0.57840000  1.0
  Li+  Li22  1  0.63652000  0.24620000  0.57840000  1.0
  Li+  Li23  1  0.83652000  0.24620000  0.57840000  1.0
  Li+  Li24  1  0.13816000  0.75320000  0.39680000  1.0
  Li+  Li25  1  0.53816000  0.75320000  0.39680000  1.0
  Li+  Li26  1  0.16184000  0.24680000  0.89680000  1.0
  Li+  Li27  1  0.56184000  0.24680000  0.89680000  1.0
  Li+  Li28  1  0.96184000  0.24680000  0.89680000  1.0
  Li+  Li29  1  0.03816000  0.74680000  0.60320000  1.0
  Li+  Li30  1  0.23816000  0.74680000  0.60320000  1.0
  Li+  Li31  1  0.43816000  0.74680000  0.60320000  1.0
  Li+  Li32  1  0.63816000  0.74680000  0.60320000  1.0
  Li+  Li33  1  0.83816000  0.74680000  0.60320000  1.0
  Li+  Li34  1  0.26184000  0.25320000  0.10320000  1.0
  Li+  Li35  1  0.46184000  0.25320000  0.10320000  1.0
  Li+  Li36  1  0.66184000  0.25320000  0.10320000  1.0
  Zn2+  Zn37  1  0.33816000  0.75320000  0.39680000  1.0
  Zn2+  Zn38  1  0.73816000  0.75320000  0.39680000  1.0
  Zn2+  Zn39  1  0.93816000  0.75320000  0.39680000  1.0
  Zn2+  Zn40  1  0.36184000  0.24680000  0.89680000  1.0
  Zn2+  Zn41  1  0.76184000  0.24680000  0.89680000  1.0
  Zn2+  Zn42  1  0.06184000  0.25320000  0.10320000  1.0
  Zn2+  Zn43  1  0.86184000  0.25320000  0.10320000  1.0
  Ga3+  Ga44  1  0.56348000  0.74620000  0.92160000  1.0
  Ga3+  Ga45  1  0.13652000  0.25380000  0.42160000  1.0
  Ga3+  Ga46  1  0.53652000  0.25380000  0.42160000  1.0
  P5+  P1  1  0.16242000  0.50770000  0.15804000  1.0
  P5+  P1  1  0.36242000  0.50770000  0.15804000  1.0
  P5+  P1  1  0.56242000  0.50770000  0.15804000  1.0
  P5+  P1  1  0.76242000  0.50770000  0.15804000  1.0
  P5+  P1  1  0.96242000  0.50770000  0.15804000  1.0
  P5+  P1  1  0.13758000  0.49230000  0.65804000  1.0
  P5+  P1  1  0.33758000  0.49230000  0.65804000  1.0
  P5+  P1  1  0.53758000  0.49230000  0.65804000  1.0
  P5+  P1  1  0.73758000  0.49230000  0.65804000  1.0
  P5+  P1  1  0.93758000  0.49230000  0.65804000  1.0
  P5+  P1  1  0.06242000  0.99230000  0.84196000  1.0
  P5+  P1  1  0.26242000  0.99230000  0.84196000  1.0
  P5+  P1  1  0.46242000  0.99230000  0.84196000  1.0
  P5+  P1  1  0.66242000  0.99230000  0.84196000  1.0
  P5+  P1  1  0.86242000  0.99230000  0.84196000  1.0
  P5+  P1  1  0.03758000  0.00770000  0.34196000  1.0
  P5+  P1  1  0.23758000  0.00770000  0.34196000  1.0
  P5+  P1  1  0.43758000  0.00770000  0.34196000  1.0
  P5+  P1  1  0.63758000  0.00770000  0.34196000  1.0
  P5+  P1  1  0.83758000  0.00770000  0.34196000  1.0
  O2-  O1  1  0.13912000  0.68860000  0.08410000  1.0
  O2-  O1  1  0.33912000  0.68860000  0.08410000  1.0
  O2-  O1  1  0.53912000  0.68860000  0.08410000  1.0
  O2-  O1  1  0.73912000  0.68860000  0.08410000  1.0
  O2-  O1  1  0.93912000  0.68860000  0.08410000  1.0
  O2-  O1  1  0.16088000  0.31140000  0.58410000  1.0
  O2-  O1  1  0.36088000  0.31140000  0.58410000  1.0
  O2-  O1  1  0.56088000  0.31140000  0.58410000  1.0
  O2-  O1  1  0.76088000  0.31140000  0.58410000  1.0
  O2-  O1  1  0.96088000  0.31140000  0.58410000  1.0
  O2-  O1  1  0.03912000  0.81140000  0.91590000  1.0
  O2-  O1  1  0.23912000  0.81140000  0.91590000  1.0
  O2-  O1  1  0.43912000  0.81140000  0.91590000  1.0
  O2-  O1  1  0.63912000  0.81140000  0.91590000  1.0
  O2-  O1  1  0.83912000  0.81140000  0.91590000  1.0
  O2-  O1  1  0.06088000  0.18860000  0.41590000  1.0
  O2-  O1  1  0.26088000  0.18860000  0.41590000  1.0
  O2-  O1  1  0.46088000  0.18860000  0.41590000  1.0
  O2-  O1  1  0.66088000  0.18860000  0.41590000  1.0
  O2-  O1  1  0.86088000  0.18860000  0.41590000  1.0
  O2-  O2  1  0.14590000  0.51320000  0.30410000  1.0
  O2-  O2  1  0.34590000  0.51320000  0.30410000  1.0
  O2-  O2  1  0.54590000  0.51320000  0.30410000  1.0
  O2-  O2  1  0.74590000  0.51320000  0.30410000  1.0
  O2-  O2  1  0.94590000  0.51320000  0.30410000  1.0
  O2-  O2  1  0.15410000  0.48680000  0.80410000  1.0
  O2-  O2  1  0.35410000  0.48680000  0.80410000  1.0
  O2-  O2  1  0.55410000  0.48680000  0.80410000  1.0
  O2-  O2  1  0.75410000  0.48680000  0.80410000  1.0
  O2-  O2  1  0.95410000  0.48680000  0.80410000  1.0
  O2-  O2  1  0.04590000  0.98680000  0.69590000  1.0
  O2-  O2  1  0.24590000  0.98680000  0.69590000  1.0
  O2-  O2  1  0.44590000  0.98680000  0.69590000  1.0
  O2-  O2  1  0.64590000  0.98680000  0.69590000  1.0
  O2-  O2  1  0.84590000  0.98680000  0.69590000  1.0
  O2-  O2  1  0.05410000  0.01320000  0.19590000  1.0
  O2-  O2  1  0.25410000  0.01320000  0.19590000  1.0
  O2-  O2  1  0.45410000  0.01320000  0.19590000  1.0
  O2-  O2  1  0.65410000  0.01320000  0.19590000  1.0
  O2-  O2  1  0.85410000  0.01320000  0.19590000  1.0
  O2-  O3  1  0.05820000  0.79980000  0.40470000  1.0
  O2-  O3  1  0.25820000  0.79980000  0.40470000  1.0
  O2-  O3  1  0.45820000  0.79980000  0.40470000  1.0
  O2-  O3  1  0.65820000  0.79980000  0.40470000  1.0
  O2-  O3  1  0.85820000  0.79980000  0.40470000  1.0
  O2-  O3  1  0.04180000  0.20020000  0.90470000  1.0
  O2-  O3  1  0.24180000  0.20020000  0.90470000  1.0
  O2-  O3  1  0.44180000  0.20020000  0.90470000  1.0
  O2-  O3  1  0.64180000  0.20020000  0.90470000  1.0
  O2-  O3  1  0.84180000  0.20020000  0.90470000  1.0
  O2-  O3  1  0.15820000  0.70020000  0.59530000  1.0
  O2-  O3  1  0.35820000  0.70020000  0.59530000  1.0
  O2-  O3  1  0.55820000  0.70020000  0.59530000  1.0
  O2-  O3  1  0.75820000  0.70020000  0.59530000  1.0
  O2-  O3  1  0.95820000  0.70020000  0.59530000  1.0
  O2-  O3  1  0.14180000  0.29980000  0.09530000  1.0
  O2-  O3  1  0.34180000  0.29980000  0.09530000  1.0
  O2-  O3  1  0.54180000  0.29980000  0.09530000  1.0
  O2-  O3  1  0.74180000  0.29980000  0.09530000  1.0
  O2-  O3  1  0.94180000  0.29980000  0.09530000  1.0
  O2-  O4  1  0.17542000  0.98970000  0.35660000  1.0
  O2-  O4  1  0.37542000  0.98970000  0.35660000  1.0
  O2-  O4  1  0.57542000  0.98970000  0.35660000  1.0
  O2-  O4  1  0.77542000  0.98970000  0.35660000  1.0
  O2-  O4  1  0.97542000  0.98970000  0.35660000  1.0
  O2-  O4  1  0.12458000  0.01030000  0.85660000  1.0
  O2-  O4  1  0.32458000  0.01030000  0.85660000  1.0
  O2-  O4  1  0.52458000  0.01030000  0.85660000  1.0
  O2-  O4  1  0.72458000  0.01030000  0.85660000  1.0
  O2-  O4  1  0.92458000  0.01030000  0.85660000  1.0
  O2-  O4  1  0.07542000  0.51030000  0.64340000  1.0
  O2-  O4  1  0.27542000  0.51030000  0.64340000  1.0
  O2-  O4  1  0.47542000  0.51030000  0.64340000  1.0
  O2-  O4  1  0.67542000  0.51030000  0.64340000  1.0
  O2-  O4  1  0.87542000  0.51030000  0.64340000  1.0
  O2-  O4  1  0.02458000  0.48970000  0.14340000  1.0
  O2-  O4  1  0.22458000  0.48970000  0.14340000  1.0
  O2-  O4  1  0.42458000  0.48970000  0.14340000  1.0
  O2-  O4  1  0.62458000  0.48970000  0.14340000  1.0
  O2-  O4  1  0.82458000  0.48970000  0.14340000  1.0
