# generated using pymatgen
data_Li6PSe5I
_symmetry_space_group_name_H-M   'P 1'
_cell_length_a   14.83453004
_cell_length_b   14.83453004
_cell_length_c   14.83453004
_cell_angle_alpha   120.00000000
_cell_angle_beta   120.00000000
_cell_angle_gamma   60.00000000
_symmetry_Int_Tables_number   1
_chemical_formula_structural   Li6PSe5I
_chemical_formula_sum   'Li48 P8 Se40 I8'
_cell_volume   2308.37509064
_cell_formula_units_Z   8
loop_
 _symmetry_equiv_pos_site_id
 _symmetry_equiv_pos_as_xyz
  1  'x, y, z'
loop_
 _atom_type_symbol
 _atom_type_oxidation_number
  Li+  1.0
  P5+  5.0
  Se2-  -2.0
  I-  -1.0
loop_
 _atom_site_type_symbol
 _atom_site_label
 _atom_site_symmetry_multiplicity
 _atom_site_fract_x
 _atom_site_fract_y
 _atom_site_fract_z
 _atom_site_occupancy
  Li+  Li0  1  0.49100000  0.42566667  0.74100000  1.0
  Li+  Li1  1  0.75900000  0.15766667  0.74100000  1.0
  Li+  Li2  1  0.99100000  0.42566667  0.50900000  1.0
  Li+  Li3  1  0.99100000  0.92566667  0.50900000  1.0
  Li+  Li4  1  0.49100000  0.92566667  0.50900000  1.0
  Li+  Li5  1  0.49100000  0.15766667  0.24100000  1.0
  Li+  Li6  1  0.25900000  0.65766667  0.50900000  1.0
  Li+  Li7  1  0.75900000  0.15766667  0.00900000  1.0
  Li+  Li8  1  0.75900000  0.42566667  0.00900000  1.0
  Li+  Li9  1  0.25900000  0.92566667  0.00900000  1.0
  Li+  Li10  1  0.25900000  0.92566667  0.50900000  1.0
  Li+  Li11  1  0.98670000  0.97556667  0.78230000  1.0
  Li+  Li12  1  0.71770000  0.65336667  0.19110000  1.0
  Li+  Li13  1  0.71770000  0.15336667  0.19110000  1.0
  Li+  Li14  1  0.98670000  0.38436667  0.01330000  1.0
  Li+  Li15  1  0.98670000  0.88436667  0.01330000  1.0
  Li+  Li16  1  0.48670000  0.88436667  0.01330000  1.0
  Li+  Li17  1  0.48670000  0.38436667  0.19110000  1.0
  Li+  Li18  1  0.98670000  0.88436667  0.69110000  1.0
  Li+  Li19  1  0.48670000  0.88436667  0.19110000  1.0
  Li+  Li20  1  0.48670000  0.88436667  0.69110000  1.0
  Li+  Li21  1  0.98670000  0.65336667  0.28230000  1.0
  Li+  Li22  1  0.98670000  0.65336667  0.78230000  1.0
  Li+  Li23  1  0.98670000  0.15336667  0.78230000  1.0
  Li+  Li24  1  0.48670000  0.15336667  0.28230000  1.0
  Li+  Li25  1  0.48670000  0.65336667  0.19110000  1.0
  Li+  Li26  1  0.80890000  0.65336667  0.28230000  1.0
  Li+  Li27  1  0.80890000  0.65336667  0.78230000  1.0
  Li+  Li28  1  0.30890000  0.65336667  0.28230000  1.0
  Li+  Li29  1  0.30890000  0.15336667  0.78230000  1.0
  Li+  Li30  1  0.30890000  0.65336667  0.01330000  1.0
  Li+  Li31  1  0.30890000  0.65336667  0.51330000  1.0
  Li+  Li32  1  0.30890000  0.15336667  0.01330000  1.0
  Li+  Li33  1  0.30890000  0.15336667  0.51330000  1.0
  Li+  Li34  1  0.98670000  0.47556667  0.01330000  1.0
  Li+  Li35  1  0.98670000  0.47556667  0.51330000  1.0
  Li+  Li36  1  0.48670000  0.47556667  0.51330000  1.0
  Li+  Li37  1  0.71770000  0.65336667  0.51330000  1.0
  Li+  Li38  1  0.71770000  0.15336667  0.01330000  1.0
  Li+  Li39  1  0.71770000  0.15336667  0.51330000  1.0
  Li+  Li40  1  0.21770000  0.15336667  0.01330000  1.0
  Li+  Li41  1  0.80890000  0.38436667  0.01330000  1.0
  Li+  Li42  1  0.80890000  0.38436667  0.51330000  1.0
  Li+  Li43  1  0.30890000  0.38436667  0.51330000  1.0
  Li+  Li44  1  0.80890000  0.88436667  0.01330000  1.0
  Li+  Li45  1  0.80890000  0.88436667  0.51330000  1.0
  Li+  Li46  1  0.30890000  0.88436667  0.51330000  1.0
  Li+  Li47  1  0.21770000  0.47556667  0.51330000  1.0
  P5+  P48  1  0.75000000  0.41666667  0.25000000  1.0
  P5+  P49  1  0.75000000  0.41666667  0.75000000  1.0
  P5+  P50  1  0.25000000  0.41666667  0.25000000  1.0
  P5+  P51  1  0.25000000  0.41666667  0.75000000  1.0
  P5+  P52  1  0.75000000  0.91666667  0.25000000  1.0
  P5+  P53  1  0.75000000  0.91666667  0.75000000  1.0
  P5+  P54  1  0.25000000  0.91666667  0.25000000  1.0
  P5+  P55  1  0.25000000  0.91666667  0.75000000  1.0
  Se2-  Se56  1  0.93090000  0.35636667  0.31030000  1.0
  Se2-  Se57  1  0.93090000  0.35636667  0.81030000  1.0
  Se2-  Se58  1  0.43090000  0.35636667  0.31030000  1.0
  Se2-  Se59  1  0.43090000  0.35636667  0.81030000  1.0
  Se2-  Se60  1  0.93090000  0.85636667  0.31030000  1.0
  Se2-  Se61  1  0.93090000  0.85636667  0.81030000  1.0
  Se2-  Se62  1  0.43090000  0.85636667  0.31030000  1.0
  Se2-  Se63  1  0.43090000  0.85636667  0.81030000  1.0
  Se2-  Se64  1  0.68970000  0.35636667  0.31030000  1.0
  Se2-  Se65  1  0.68970000  0.35636667  0.81030000  1.0
  Se2-  Se66  1  0.18970000  0.35636667  0.31030000  1.0
  Se2-  Se67  1  0.18970000  0.35636667  0.81030000  1.0
  Se2-  Se68  1  0.68970000  0.85636667  0.31030000  1.0
  Se2-  Se69  1  0.68970000  0.85636667  0.81030000  1.0
  Se2-  Se70  1  0.18970000  0.85636667  0.31030000  1.0
  Se2-  Se71  1  0.18970000  0.85636667  0.81030000  1.0
  Se2-  Se72  1  0.68970000  0.35636667  0.06910000  1.0
  Se2-  Se73  1  0.68970000  0.35636667  0.56910000  1.0
  Se2-  Se74  1  0.18970000  0.35636667  0.06910000  1.0
  Se2-  Se75  1  0.18970000  0.35636667  0.56910000  1.0
  Se2-  Se76  1  0.68970000  0.85636667  0.06910000  1.0
  Se2-  Se77  1  0.68970000  0.85636667  0.56910000  1.0
  Se2-  Se78  1  0.18970000  0.85636667  0.06910000  1.0
  Se2-  Se79  1  0.18970000  0.85636667  0.56910000  1.0
  Se2-  Se80  1  0.68970000  0.59756667  0.31030000  1.0
  Se2-  Se81  1  0.68970000  0.59756667  0.81030000  1.0
  Se2-  Se82  1  0.18970000  0.59756667  0.31030000  1.0
  Se2-  Se83  1  0.18970000  0.59756667  0.81030000  1.0
  Se2-  Se84  1  0.68970000  0.09756667  0.31030000  1.0
  Se2-  Se85  1  0.68970000  0.09756667  0.81030000  1.0
  Se2-  Se86  1  0.18970000  0.09756667  0.31030000  1.0
  Se2-  Se87  1  0.18970000  0.09756667  0.81030000  1.0
  Se2-  Se88  1  0.62500000  0.29166667  0.37500000  1.0
  Se2-  Se89  1  0.62500000  0.29166667  0.87500000  1.0
  Se2-  Se90  1  0.12500000  0.29166667  0.37500000  1.0
  Se2-  Se91  1  0.12500000  0.29166667  0.87500000  1.0
  Se2-  Se92  1  0.62500000  0.79166667  0.37500000  1.0
  Se2-  Se93  1  0.62500000  0.79166667  0.87500000  1.0
  Se2-  Se94  1  0.12500000  0.79166667  0.37500000  1.0
  Se2-  Se95  1  0.12500000  0.79166667  0.87500000  1.0
  I-  I96  1  0.00000000  0.66666667  0.00000000  1.0
  I-  I97  1  0.00000000  0.66666667  0.50000000  1.0
  I-  I98  1  0.50000000  0.66666667  0.00000000  1.0
  I-  I99  1  0.50000000  0.66666667  0.50000000  1.0
  I-  I100  1  0.00000000  0.16666667  0.00000000  1.0
  I-  I101  1  0.00000000  0.16666667  0.50000000  1.0
  I-  I102  1  0.50000000  0.16666667  0.00000000  1.0
  I-  I103  1  0.50000000  0.16666667  0.50000000  1.0
