# generated using pymatgen
data_Li6PSe5I
_symmetry_space_group_name_H-M   'P 1'
_cell_length_a   14.92207440
_cell_length_b   14.92207440
_cell_length_c   14.92207440
_cell_angle_alpha   60.00000000
_cell_angle_beta   60.00000000
_cell_angle_gamma   60.00000000
_symmetry_Int_Tables_number   1
_chemical_formula_structural   Li6PSe5I
_chemical_formula_sum   'Li48 P8 Se40 I8'
_cell_volume   2349.48461334
_cell_formula_units_Z   8
loop_
 _symmetry_equiv_pos_site_id
 _symmetry_equiv_pos_as_xyz
  1  'x, y, z'
loop_
 _atom_type_symbol
 _atom_type_oxidation_number
  Li+  1.0
  P5+  5.0
  Se2-  -2.0
  I-  -1.0
loop_
 _atom_site_type_symbol
 _atom_site_label
 _atom_site_symmetry_multiplicity
 _atom_site_fract_x
 _atom_site_fract_y
 _atom_site_fract_z
 _atom_site_occupancy
  Li+  Li0  1  0.24100000  0.50900000  0.74100000  1.0
  Li+  Li1  1  0.50900000  0.24100000  0.74100000  1.0
  Li+  Li2  1  0.24100000  0.00900000  0.50900000  1.0
  Li+  Li3  1  0.74100000  0.00900000  0.50900000  1.0
  Li+  Li4  1  0.74100000  0.50900000  0.50900000  1.0
  Li+  Li5  1  0.50900000  0.50900000  0.24100000  1.0
  Li+  Li6  1  0.00900000  0.74100000  0.50900000  1.0
  Li+  Li7  1  0.50900000  0.24100000  0.00900000  1.0
  Li+  Li8  1  0.24100000  0.24100000  0.00900000  1.0
  Li+  Li9  1  0.74100000  0.74100000  0.00900000  1.0
  Li+  Li10  1  0.74100000  0.74100000  0.50900000  1.0
  Li+  Li11  1  0.69110000  0.01330000  0.78230000  1.0
  Li+  Li12  1  0.01330000  0.28230000  0.19110000  1.0
  Li+  Li13  1  0.51330000  0.28230000  0.19110000  1.0
  Li+  Li14  1  0.28230000  0.01330000  0.01330000  1.0
  Li+  Li15  1  0.78230000  0.01330000  0.01330000  1.0
  Li+  Li16  1  0.78230000  0.51330000  0.01330000  1.0
  Li+  Li17  1  0.28230000  0.51330000  0.19110000  1.0
  Li+  Li18  1  0.78230000  0.01330000  0.69110000  1.0
  Li+  Li19  1  0.78230000  0.51330000  0.19110000  1.0
  Li+  Li20  1  0.78230000  0.51330000  0.69110000  1.0
  Li+  Li21  1  0.01330000  0.01330000  0.28230000  1.0
  Li+  Li22  1  0.01330000  0.01330000  0.78230000  1.0
  Li+  Li23  1  0.51330000  0.01330000  0.78230000  1.0
  Li+  Li24  1  0.51330000  0.51330000  0.28230000  1.0
  Li+  Li25  1  0.01330000  0.51330000  0.19110000  1.0
  Li+  Li26  1  0.01330000  0.19110000  0.28230000  1.0
  Li+  Li27  1  0.01330000  0.19110000  0.78230000  1.0
  Li+  Li28  1  0.01330000  0.69110000  0.28230000  1.0
  Li+  Li29  1  0.51330000  0.69110000  0.78230000  1.0
  Li+  Li30  1  0.01330000  0.69110000  0.01330000  1.0
  Li+  Li31  1  0.01330000  0.69110000  0.51330000  1.0
  Li+  Li32  1  0.51330000  0.69110000  0.01330000  1.0
  Li+  Li33  1  0.51330000  0.69110000  0.51330000  1.0
  Li+  Li34  1  0.19110000  0.01330000  0.01330000  1.0
  Li+  Li35  1  0.19110000  0.01330000  0.51330000  1.0
  Li+  Li36  1  0.19110000  0.51330000  0.51330000  1.0
  Li+  Li37  1  0.01330000  0.28230000  0.51330000  1.0
  Li+  Li38  1  0.51330000  0.28230000  0.01330000  1.0
  Li+  Li39  1  0.51330000  0.28230000  0.51330000  1.0
  Li+  Li40  1  0.51330000  0.78230000  0.01330000  1.0
  Li+  Li41  1  0.28230000  0.19110000  0.01330000  1.0
  Li+  Li42  1  0.28230000  0.19110000  0.51330000  1.0
  Li+  Li43  1  0.28230000  0.69110000  0.51330000  1.0
  Li+  Li44  1  0.78230000  0.19110000  0.01330000  1.0
  Li+  Li45  1  0.78230000  0.19110000  0.51330000  1.0
  Li+  Li46  1  0.78230000  0.69110000  0.51330000  1.0
  Li+  Li47  1  0.19110000  0.78230000  0.51330000  1.0
  P5+  P1  1  0.25000000  0.25000000  0.25000000  1.0
  P5+  P1  1  0.25000000  0.25000000  0.75000000  1.0
  P5+  P1  1  0.25000000  0.75000000  0.25000000  1.0
  P5+  P1  1  0.25000000  0.75000000  0.75000000  1.0
  P5+  P1  1  0.75000000  0.25000000  0.25000000  1.0
  P5+  P1  1  0.75000000  0.25000000  0.75000000  1.0
  P5+  P1  1  0.75000000  0.75000000  0.25000000  1.0
  P5+  P1  1  0.75000000  0.75000000  0.75000000  1.0
  Se2-  S2  1  0.31030000  0.06910000  0.31030000  1.0
  Se2-  S2  1  0.31030000  0.06910000  0.81030000  1.0
  Se2-  S2  1  0.31030000  0.56910000  0.31030000  1.0
  Se2-  S2  1  0.31030000  0.56910000  0.81030000  1.0
  Se2-  S2  1  0.81030000  0.06910000  0.31030000  1.0
  Se2-  S2  1  0.81030000  0.06910000  0.81030000  1.0
  Se2-  S2  1  0.81030000  0.56910000  0.31030000  1.0
  Se2-  S2  1  0.81030000  0.56910000  0.81030000  1.0
  Se2-  S2  1  0.31030000  0.31030000  0.31030000  1.0
  Se2-  S2  1  0.31030000  0.31030000  0.81030000  1.0
  Se2-  S2  1  0.31030000  0.81030000  0.31030000  1.0
  Se2-  S2  1  0.31030000  0.81030000  0.81030000  1.0
  Se2-  S2  1  0.81030000  0.31030000  0.31030000  1.0
  Se2-  S2  1  0.81030000  0.31030000  0.81030000  1.0
  Se2-  S2  1  0.81030000  0.81030000  0.31030000  1.0
  Se2-  S2  1  0.81030000  0.81030000  0.81030000  1.0
  Se2-  S2  1  0.31030000  0.31030000  0.06910000  1.0
  Se2-  S2  1  0.31030000  0.31030000  0.56910000  1.0
  Se2-  S2  1  0.31030000  0.81030000  0.06910000  1.0
  Se2-  S2  1  0.31030000  0.81030000  0.56910000  1.0
  Se2-  S2  1  0.81030000  0.31030000  0.06910000  1.0
  Se2-  S2  1  0.81030000  0.31030000  0.56910000  1.0
  Se2-  S2  1  0.81030000  0.81030000  0.06910000  1.0
  Se2-  S2  1  0.81030000  0.81030000  0.56910000  1.0
  Se2-  S2  1  0.06910000  0.31030000  0.31030000  1.0
  Se2-  S2  1  0.06910000  0.31030000  0.81030000  1.0
  Se2-  S2  1  0.06910000  0.81030000  0.31030000  1.0
  Se2-  S2  1  0.06910000  0.81030000  0.81030000  1.0
  Se2-  S2  1  0.56910000  0.31030000  0.31030000  1.0
  Se2-  S2  1  0.56910000  0.31030000  0.81030000  1.0
  Se2-  S2  1  0.56910000  0.81030000  0.31030000  1.0
  Se2-  S2  1  0.56910000  0.81030000  0.81030000  1.0
  Se2-  Se88  1  0.37500000  0.37500000  0.37500000  1.0
  Se2-  Se89  1  0.37500000  0.37500000  0.87500000  1.0
  Se2-  Se90  1  0.37500000  0.87500000  0.37500000  1.0
  Se2-  Se91  1  0.37500000  0.87500000  0.87500000  1.0
  Se2-  Se92  1  0.87500000  0.37500000  0.37500000  1.0
  Se2-  Se93  1  0.87500000  0.37500000  0.87500000  1.0
  Se2-  Se94  1  0.87500000  0.87500000  0.37500000  1.0
  Se2-  Se95  1  0.87500000  0.87500000  0.87500000  1.0
  I-  I96  1  0.00000000  0.00000000  0.00000000  1.0
  I-  I97  1  0.00000000  0.00000000  0.50000000  1.0
  I-  I98  1  0.00000000  0.50000000  0.00000000  1.0
  I-  I99  1  0.00000000  0.50000000  0.50000000  1.0
  I-  I100  1  0.50000000  0.00000000  0.00000000  1.0
  I-  I101  1  0.50000000  0.00000000  0.50000000  1.0
  I-  I102  1  0.50000000  0.50000000  0.00000000  1.0
  I-  I103  1  0.50000000  0.50000000  0.50000000  1.0
