# generated using pymatgen
data_Li30SnGe2(PS6)6
_symmetry_space_group_name_H-M   'P 1'
_cell_length_a   26.15577000
_cell_length_b   8.71859000
_cell_length_c   12.65140000
_cell_angle_alpha   90.00000000
_cell_angle_beta   90.00000000
_cell_angle_gamma   90.00000000
_symmetry_Int_Tables_number   1
_chemical_formula_structural   Li30SnGe2(PS6)6
_chemical_formula_sum   'Li60 Sn2 Ge4 P12 S72'
_cell_volume   2885.04340778
_cell_formula_units_Z   2
loop_
 _symmetry_equiv_pos_site_id
 _symmetry_equiv_pos_as_xyz
  1  'x, y, z'
loop_
 _atom_type_symbol
 _atom_type_oxidation_number
  Li+  1.0
  Sn4+  4.0
  Ge4+  4.0
  P5+  5.0
  S2-  -2.0
loop_
 _atom_site_type_symbol
 _atom_site_label
 _atom_site_symmetry_multiplicity
 _atom_site_fract_x
 _atom_site_fract_y
 _atom_site_fract_z
 _atom_site_occupancy
  Li+  Li0  1  0.16600000  0.01300000  0.44690000  1.0
  Li+  Li1  1  0.49933333  0.01300000  0.44690000  1.0
  Li+  Li2  1  0.83266667  0.01300000  0.44690000  1.0
  Li+  Li3  1  0.16733333  0.98700000  0.55310000  1.0
  Li+  Li4  1  0.50066667  0.98700000  0.55310000  1.0
  Li+  Li5  1  0.83400000  0.98700000  0.55310000  1.0
  Li+  Li6  1  0.33400000  0.48700000  0.44690000  1.0
  Li+  Li7  1  0.82900000  0.49800000  0.94690000  1.0
  Li+  Li8  1  0.50433333  0.50200000  0.05310000  1.0
  Li+  Li9  1  0.83766667  0.50200000  0.05310000  1.0
  Li+  Li10  1  0.00433333  0.00200000  0.94690000  1.0
  Li+  Li11  1  0.67100000  0.00200000  0.94690000  1.0
  Li+  Li12  1  0.32900000  0.99800000  0.05310000  1.0
  Li+  Li13  1  0.16733333  0.51300000  0.55310000  1.0
  Li+  Li14  1  0.50066667  0.51300000  0.55310000  1.0
  Li+  Li15  1  0.83400000  0.51300000  0.55310000  1.0
  Li+  Li16  1  0.49933333  0.48700000  0.44690000  1.0
  Li+  Li17  1  0.83266667  0.48700000  0.44690000  1.0
  Li+  Li18  1  0.33266667  0.98700000  0.55310000  1.0
  Li+  Li19  1  0.66600000  0.98700000  0.55310000  1.0
  Li+  Li20  1  0.99933333  0.98700000  0.55310000  1.0
  Li+  Li21  1  0.17100000  0.99800000  0.05310000  1.0
  Li+  Li22  1  0.83766667  0.99800000  0.05310000  1.0
  Li+  Li23  1  0.16233333  0.00200000  0.94690000  1.0
  Li+  Li24  1  0.49566667  0.00200000  0.94690000  1.0
  Li+  Li25  1  0.99566667  0.50200000  0.05310000  1.0
  Li+  Li26  1  0.33766667  0.49800000  0.94690000  1.0
  Li+  Li27  1  0.67100000  0.49800000  0.94690000  1.0
  Li+  Li28  1  0.08333333  0.22600000  0.19500000  1.0
  Li+  Li29  1  0.25000000  0.77400000  0.80500000  1.0
  Li+  Li30  1  0.75000000  0.27400000  0.19500000  1.0
  Li+  Li31  1  0.91666667  0.72600000  0.80500000  1.0
  Li+  Li32  1  0.09133333  0.25000000  0.69500000  1.0
  Li+  Li33  1  0.42466667  0.25000000  0.69500000  1.0
  Li+  Li34  1  0.07533333  0.25000000  0.69500000  1.0
  Li+  Li35  1  0.25800000  0.75000000  0.30500000  1.0
  Li+  Li36  1  0.92466667  0.75000000  0.30500000  1.0
  Li+  Li37  1  0.16533333  0.99600000  0.25000000  1.0
  Li+  Li38  1  0.83200000  0.99600000  0.25000000  1.0
  Li+  Li39  1  0.50133333  0.00400000  0.75000000  1.0
  Li+  Li40  1  0.83466667  0.00400000  0.75000000  1.0
  Li+  Li41  1  0.33466667  0.50400000  0.25000000  1.0
  Li+  Li42  1  0.66800000  0.50400000  0.25000000  1.0
  Li+  Li43  1  0.33200000  0.49600000  0.75000000  1.0
  Li+  Li44  1  0.99866667  0.49600000  0.75000000  1.0
  Li+  Li45  1  0.16800000  0.49600000  0.75000000  1.0
  Li+  Li46  1  0.50133333  0.49600000  0.75000000  1.0
  Li+  Li47  1  0.83466667  0.49600000  0.75000000  1.0
  Li+  Li48  1  0.16533333  0.50400000  0.25000000  1.0
  Li+  Li49  1  0.49866667  0.50400000  0.25000000  1.0
  Li+  Li50  1  0.66533333  0.00400000  0.75000000  1.0
  Li+  Li51  1  0.99866667  0.00400000  0.75000000  1.0
  Li+  Li52  1  0.00133333  0.99600000  0.25000000  1.0
  Li+  Li53  1  0.33466667  0.99600000  0.25000000  1.0
  Li+  Li54  1  0.41666667  0.75000000  0.49900000  1.0
  Li+  Li55  1  0.75000000  0.75000000  0.49900000  1.0
  Li+  Li56  1  0.25000000  0.25000000  0.50100000  1.0
  Li+  Li57  1  0.58333333  0.25000000  0.99900000  1.0
  Li+  Li58  1  0.91666667  0.25000000  0.99900000  1.0
  Li+  Li59  1  0.41666667  0.75000000  0.00100000  1.0
  Sn4+  Sn60  1  0.25000000  0.75000000  0.05939000  1.0
  Sn4+  Sn61  1  0.41666667  0.25000000  0.44061000  1.0
  Ge4+  Ge62  1  0.41666667  0.25000000  0.94061000  1.0
  Ge4+  Ge63  1  0.75000000  0.25000000  0.94061000  1.0
  Ge4+  Ge64  1  0.08333333  0.25000000  0.44061000  1.0
  Ge4+  Ge65  1  0.25000000  0.75000000  0.55939000  1.0
  P5+  P66  1  0.08333333  0.25000000  0.94061000  1.0
  P5+  P67  1  0.58333333  0.75000000  0.05939000  1.0
  P5+  P68  1  0.91666667  0.75000000  0.05939000  1.0
  P5+  P69  1  0.75000000  0.25000000  0.44061000  1.0
  P5+  P70  1  0.58333333  0.75000000  0.55939000  1.0
  P5+  P71  1  0.91666667  0.75000000  0.55939000  1.0
  P5+  P2  1  0.08333333  0.75000000  0.75000000  1.0
  P5+  P2  1  0.41666667  0.75000000  0.75000000  1.0
  P5+  P2  1  0.75000000  0.75000000  0.75000000  1.0
  P5+  P2  1  0.25000000  0.25000000  0.25000000  1.0
  P5+  P2  1  0.58333333  0.25000000  0.25000000  1.0
  P5+  P2  1  0.91666667  0.25000000  0.25000000  1.0
  S2-  S1  1  0.08333333  0.93740000  0.65830000  1.0
  S2-  S1  1  0.41666667  0.93740000  0.65830000  1.0
  S2-  S1  1  0.75000000  0.93740000  0.65830000  1.0
  S2-  S1  1  0.25000000  0.06260000  0.34170000  1.0
  S2-  S1  1  0.58333333  0.06260000  0.34170000  1.0
  S2-  S1  1  0.91666667  0.06260000  0.34170000  1.0
  S2-  S1  1  0.08333333  0.56260000  0.65830000  1.0
  S2-  S1  1  0.41666667  0.56260000  0.65830000  1.0
  S2-  S1  1  0.75000000  0.56260000  0.65830000  1.0
  S2-  S1  1  0.25000000  0.43740000  0.34170000  1.0
  S2-  S1  1  0.58333333  0.43740000  0.34170000  1.0
  S2-  S1  1  0.91666667  0.43740000  0.34170000  1.0
  S2-  S1  1  0.18753333  0.25000000  0.15830000  1.0
  S2-  S1  1  0.52086667  0.25000000  0.15830000  1.0
  S2-  S1  1  0.85420000  0.25000000  0.15830000  1.0
  S2-  S1  1  0.14580000  0.75000000  0.84170000  1.0
  S2-  S1  1  0.47913333  0.75000000  0.84170000  1.0
  S2-  S1  1  0.81246667  0.75000000  0.84170000  1.0
  S2-  S1  1  0.31246667  0.25000000  0.15830000  1.0
  S2-  S1  1  0.64580000  0.25000000  0.15830000  1.0
  S2-  S1  1  0.97913333  0.25000000  0.15830000  1.0
  S2-  S1  1  0.02086667  0.75000000  0.84170000  1.0
  S2-  S1  1  0.35420000  0.75000000  0.84170000  1.0
  S2-  S1  1  0.68753333  0.75000000  0.84170000  1.0
  S2-  S2  1  0.08333333  0.04290000  0.34640000  1.0
  S2-  S2  1  0.41666667  0.04290000  0.34640000  1.0
  S2-  S2  1  0.75000000  0.04290000  0.34640000  1.0
  S2-  S2  1  0.25000000  0.95710000  0.65360000  1.0
  S2-  S2  1  0.58333333  0.95710000  0.65360000  1.0
  S2-  S2  1  0.91666667  0.95710000  0.65360000  1.0
  S2-  S2  1  0.08333333  0.45710000  0.34640000  1.0
  S2-  S2  1  0.41666667  0.45710000  0.34640000  1.0
  S2-  S2  1  0.75000000  0.45710000  0.34640000  1.0
  S2-  S2  1  0.25000000  0.54290000  0.65360000  1.0
  S2-  S2  1  0.58333333  0.54290000  0.65360000  1.0
  S2-  S2  1  0.91666667  0.54290000  0.65360000  1.0
  S2-  S2  1  0.15236667  0.25000000  0.84640000  1.0
  S2-  S2  1  0.48570000  0.25000000  0.84640000  1.0
  S2-  S2  1  0.81903333  0.25000000  0.84640000  1.0
  S2-  S2  1  0.18096667  0.75000000  0.15360000  1.0
  S2-  S2  1  0.51430000  0.75000000  0.15360000  1.0
  S2-  S2  1  0.84763333  0.75000000  0.15360000  1.0
  S2-  S2  1  0.01430000  0.25000000  0.84640000  1.0
  S2-  S2  1  0.34763333  0.25000000  0.84640000  1.0
  S2-  S2  1  0.68096667  0.25000000  0.84640000  1.0
  S2-  S2  1  0.31903333  0.75000000  0.15360000  1.0
  S2-  S2  1  0.65236667  0.75000000  0.15360000  1.0
  S2-  S2  1  0.98570000  0.75000000  0.15360000  1.0
  S2-  S3  1  0.08333333  0.44890000  0.04334000  1.0
  S2-  S3  1  0.41666667  0.44890000  0.04334000  1.0
  S2-  S3  1  0.75000000  0.44890000  0.04334000  1.0
  S2-  S3  1  0.25000000  0.55110000  0.95666000  1.0
  S2-  S3  1  0.58333333  0.55110000  0.95666000  1.0
  S2-  S3  1  0.91666667  0.55110000  0.95666000  1.0
  S2-  S3  1  0.08333333  0.05110000  0.04334000  1.0
  S2-  S3  1  0.41666667  0.05110000  0.04334000  1.0
  S2-  S3  1  0.75000000  0.05110000  0.04334000  1.0
  S2-  S3  1  0.25000000  0.94890000  0.95666000  1.0
  S2-  S3  1  0.58333333  0.94890000  0.95666000  1.0
  S2-  S3  1  0.91666667  0.94890000  0.95666000  1.0
  S2-  S3  1  0.01703333  0.25000000  0.54334000  1.0
  S2-  S3  1  0.35036667  0.25000000  0.54334000  1.0
  S2-  S3  1  0.68370000  0.25000000  0.54334000  1.0
  S2-  S3  1  0.31630000  0.75000000  0.45666000  1.0
  S2-  S3  1  0.64963333  0.75000000  0.45666000  1.0
  S2-  S3  1  0.98296667  0.75000000  0.45666000  1.0
  S2-  S3  1  0.14963333  0.25000000  0.54334000  1.0
  S2-  S3  1  0.48296667  0.25000000  0.54334000  1.0
  S2-  S3  1  0.81630000  0.25000000  0.54334000  1.0
  S2-  S3  1  0.18370000  0.75000000  0.45666000  1.0
  S2-  S3  1  0.51703333  0.75000000  0.45666000  1.0
  S2-  S3  1  0.85036667  0.75000000  0.45666000  1.0
