# generated using pymatgen
data_Li12P2S10BrCl
_symmetry_space_group_name_H-M   'P 1'
_cell_length_a   14.07425337
_cell_length_b   14.07425337
_cell_length_c   14.07425337
_cell_angle_alpha   60.00000000
_cell_angle_beta   120.00000000
_cell_angle_gamma   120.00000000
_symmetry_Int_Tables_number   1
_chemical_formula_structural   Li12P2S10BrCl
_chemical_formula_sum   'Li48 P8 S40 Br4 Cl4'
_cell_volume   1971.33801767
_cell_formula_units_Z   4
loop_
 _symmetry_equiv_pos_site_id
 _symmetry_equiv_pos_as_xyz
  1  'x, y, z'
loop_
 _atom_type_symbol
 _atom_type_oxidation_number
  Li+  1.0
  P5+  5.0
  S2-  -2.0
  Br-  -1.0
  Cl-  -1.0
loop_
 _atom_site_type_symbol
 _atom_site_label
 _atom_site_symmetry_multiplicity
 _atom_site_fract_x
 _atom_site_fract_y
 _atom_site_fract_z
 _atom_site_occupancy
  Li+  Li0  1  0.01144382  0.99083173  0.57407908  1.0
  Li+  Li1  1  0.01060000  0.48940000  0.07380000  1.0
  Li+  Li2  1  0.51060000  0.98940000  0.57380000  1.0
  Li+  Li3  1  0.50877746  0.98613722  0.07646215  1.0
  Li+  Li4  1  0.01060000  0.19740000  0.73940000  1.0
  Li+  Li5  1  0.01060000  0.69740000  0.23940000  1.0
  Li+  Li6  1  0.01060000  0.19740000  0.23940000  1.0
  Li+  Li7  1  0.51060000  0.69740000  0.73940000  1.0
  Li+  Li8  1  0.51060000  0.19740000  0.73940000  1.0
  Li+  Li9  1  0.01094243  0.82032055  0.95119751  1.0
  Li+  Li10  1  0.01388179  0.32149597  0.94878015  1.0
  Li+  Li11  1  0.51060000  0.32380000  0.94740000  1.0
  Li+  Li12  1  0.01060000  0.69740000  0.57380000  1.0
  Li+  Li13  1  0.01060000  0.19740000  0.57380000  1.0
  Li+  Li14  1  0.51365531  0.69093137  0.57076541  1.0
  Li+  Li15  1  0.51060000  0.19740000  0.57380000  1.0
  Li+  Li16  1  0.51060000  0.69740000  0.07380000  1.0
  Li+  Li17  1  0.51060000  0.19740000  0.07380000  1.0
  Li+  Li18  1  0.01060000  0.82380000  0.23940000  1.0
  Li+  Li19  1  0.01060000  0.32380000  0.23940000  1.0
  Li+  Li20  1  0.50818750  0.32709055  0.24500798  1.0
  Li+  Li21  1  0.01060000  0.98940000  0.94740000  1.0
  Li+  Li22  1  0.51607379  0.48713191  0.44871476  1.0
  Li+  Li23  1  0.51060000  0.98940000  0.94740000  1.0
  Li+  Li24  1  0.17620000  0.19740000  0.73940000  1.0
  Li+  Li25  1  0.67620000  0.69740000  0.23940000  1.0
  Li+  Li26  1  0.30260000  0.98940000  0.23940000  1.0
  Li+  Li27  1  0.80260000  0.98940000  0.73940000  1.0
  Li+  Li28  1  0.80260000  0.48940000  0.73940000  1.0
  Li+  Li29  1  0.80260000  0.98940000  0.23940000  1.0
  Li+  Li30  1  0.80260000  0.48940000  0.23940000  1.0
  Li+  Li31  1  0.17620000  0.98940000  0.73940000  1.0
  Li+  Li32  1  0.17620000  0.48940000  0.73940000  1.0
  Li+  Li33  1  0.67620000  0.48940000  0.73940000  1.0
  Li+  Li34  1  0.30260000  0.82380000  0.23940000  1.0
  Li+  Li35  1  0.30260000  0.32380000  0.23940000  1.0
  Li+  Li36  1  0.80260000  0.32380000  0.73940000  1.0
  Li+  Li37  1  0.80260000  0.32380000  0.23940000  1.0
  Li+  Li38  1  0.30260000  0.98940000  0.57380000  1.0
  Li+  Li39  1  0.30260000  0.48940000  0.57380000  1.0
  Li+  Li40  1  0.30260000  0.98940000  0.07380000  1.0
  Li+  Li41  1  0.30260000  0.48940000  0.07380000  1.0
  Li+  Li42  1  0.80260000  0.98940000  0.57380000  1.0
  Li+  Li43  1  0.80527314  0.98481955  0.07543847  1.0
  Li+  Li44  1  0.17620000  0.98940000  0.44740000  1.0
  Li+  Li45  1  0.17220266  0.48825791  0.94901741  1.0
  Li+  Li46  1  0.67620000  0.48940000  0.44740000  1.0
  Li+  Li47  1  0.67620000  0.48940000  0.94740000  1.0
  P5+  P48  1  0.25000000  0.75000000  0.50000000  1.0
  P5+  P49  1  0.25000000  0.25000000  0.50000000  1.0
  P5+  P50  1  0.25000000  0.75000000  0.00000000  1.0
  P5+  P51  1  0.25000000  0.25000000  0.00000000  1.0
  P5+  P52  1  0.75060583  0.75145779  0.50253823  1.0
  P5+  P53  1  0.75227637  0.25135451  0.50094672  1.0
  P5+  P54  1  0.75000000  0.75000000  0.00000000  1.0
  P5+  P55  1  0.75000000  0.25000000  0.00000000  1.0
  S2-  S56  1  0.30950000  0.92850000  0.44050000  1.0
  S2-  S57  1  0.30950000  0.42850000  0.44050000  1.0
  S2-  S58  1  0.30818413  0.92585326  0.94059336  1.0
  S2-  S59  1  0.30950000  0.42850000  0.94050000  1.0
  S2-  S60  1  0.80715023  0.92478841  0.44036284  1.0
  S2-  S61  1  0.80950000  0.42850000  0.44050000  1.0
  S2-  S62  1  0.80963475  0.92967736  0.94120645  1.0
  S2-  S63  1  0.80950000  0.42850000  0.94050000  1.0
  S2-  S64  1  0.30950000  0.69050000  0.67850000  1.0
  S2-  S65  1  0.31015414  0.19246068  0.68236427  1.0
  S2-  S66  1  0.30950000  0.69050000  0.17850000  1.0
  S2-  S67  1  0.30950000  0.19050000  0.17850000  1.0
  S2-  S68  1  0.80950000  0.69050000  0.67850000  1.0
  S2-  S69  1  0.80950000  0.19050000  0.67850000  1.0
  S2-  S70  1  0.81024637  0.68926075  0.17322628  1.0
  S2-  S71  1  0.80950000  0.19050000  0.17850000  1.0
  S2-  S72  1  0.30950000  0.69050000  0.44050000  1.0
  S2-  S73  1  0.30950000  0.19050000  0.44050000  1.0
  S2-  S74  1  0.30733510  0.69250139  0.93886799  1.0
  S2-  S75  1  0.30950000  0.19050000  0.94050000  1.0
  S2-  S76  1  0.80820392  0.68990830  0.44618438  1.0
  S2-  S77  1  0.80950000  0.19050000  0.44050000  1.0
  S2-  S78  1  0.80689241  0.68796455  0.94184186  1.0
  S2-  S79  1  0.80950000  0.19050000  0.94050000  1.0
  S2-  S80  1  0.07150000  0.69050000  0.44050000  1.0
  S2-  S81  1  0.07150000  0.19050000  0.44050000  1.0
  S2-  S82  1  0.07286515  0.69261380  0.93703281  1.0
  S2-  S83  1  0.07150000  0.19050000  0.94050000  1.0
  S2-  S84  1  0.57150000  0.69050000  0.44050000  1.0
  S2-  S85  1  0.57150000  0.19050000  0.44050000  1.0
  S2-  S86  1  0.57023950  0.68729410  0.93990462  1.0
  S2-  S87  1  0.57150000  0.19050000  0.94050000  1.0
  S2-  S88  1  0.12500000  0.87500000  0.62500000  1.0
  S2-  S89  1  0.12500000  0.87500000  0.12500000  1.0
  S2-  S90  1  0.62568499  0.87796550  0.62603065  1.0
  S2-  S91  1  0.62500000  0.37500000  0.62500000  1.0
  S2-  S92  1  0.00000000  0.50000000  0.75000000  1.0
  S2-  S93  1  0.00000000  0.00000000  0.25000000  1.0
  S2-  S94  1  0.50000000  0.00000000  0.75000000  1.0
  S2-  S95  1  0.50000000  0.50000000  0.25000000  1.0
  Br-  Br96  1  0.12490023  0.37412756  0.13019855  1.0
  Br-  Br97  1  0.62664157  0.87646657  0.13063108  1.0
  Br-  Br98  1  0.00000000  0.50000000  0.25000000  1.0
  Br-  Br99  1  0.50000000  0.50000000  0.75000000  1.0
  Cl-  Cl100  1  0.12500000  0.37500000  0.62500000  1.0
  Cl-  Cl101  1  0.62396879  0.37527285  0.12164750  1.0
  Cl-  Cl102  1  0.99712749  0.99992678  0.74738377  1.0
  Cl-  Cl103  1  0.50000000  0.00000000  0.25000000  1.0
