# generated using pymatgen
data_Li25SnP3(S5I)4
_symmetry_space_group_name_H-M   'P 1'
_cell_length_a   14.44073268
_cell_length_b   14.44073268
_cell_length_c   14.44073268
_cell_angle_alpha   60.00000000
_cell_angle_beta   120.00000000
_cell_angle_gamma   120.00000000
_symmetry_Int_Tables_number   1
_chemical_formula_structural   Li25SnP3(S5I)4
_chemical_formula_sum   'Li50 Sn2 P6 S40 I8'
_cell_volume   2129.37763334
_cell_formula_units_Z   2
loop_
 _symmetry_equiv_pos_site_id
 _symmetry_equiv_pos_as_xyz
  1  'x, y, z'
loop_
 _atom_type_symbol
 _atom_type_oxidation_number
  Li+  1.0
  Sn4+  4.0
  P5+  5.0
  S2-  -2.0
  I-  -1.0
loop_
 _atom_site_type_symbol
 _atom_site_label
 _atom_site_symmetry_multiplicity
 _atom_site_fract_x
 _atom_site_fract_y
 _atom_site_fract_z
 _atom_site_occupancy
  Li+  Li0  1  0.24100000  0.75900000  0.24100000  1.0
  Li+  Li1  1  0.74100000  0.75900000  0.24100000  1.0
  Li+  Li2  1  0.00900000  0.75900000  0.00900000  1.0
  Li+  Li3  1  0.50900000  0.25900000  0.50900000  1.0
  Li+  Li4  1  0.50900000  0.75900000  0.00900000  1.0
  Li+  Li5  1  0.74100000  0.49100000  0.24100000  1.0
  Li+  Li6  1  0.00900000  0.75900000  0.74100000  1.0
  Li+  Li7  1  0.00900000  0.99100000  0.00900000  1.0
  Li+  Li8  1  0.23974946  0.99283846  0.50496946  1.0
  Li+  Li9  1  0.24100000  0.49100000  0.50900000  1.0
  Li+  Li10  1  0.74100000  0.49100000  0.00900000  1.0
  Li+  Li11  1  0.20307000  0.70573000  0.74867000  1.0
  Li+  Li12  1  0.70307000  0.70573000  0.74867000  1.0
  Li+  Li13  1  0.70307000  0.20573000  0.74867000  1.0
  Li+  Li14  1  0.50133000  0.79693000  0.95573000  1.0
  Li+  Li15  1  0.29427000  0.99867000  0.24867000  1.0
  Li+  Li16  1  0.29427000  0.49867000  0.24867000  1.0
  Li+  Li17  1  0.80311656  0.99714373  0.75524026  1.0
  Li+  Li18  1  0.79427000  0.99867000  0.24867000  1.0
  Li+  Li19  1  0.30024087  0.79674812  0.75242516  1.0
  Li+  Li20  1  0.29427000  0.29693000  0.74867000  1.0
  Li+  Li21  1  0.00623241  0.20600811  0.74947171  1.0
  Li+  Li22  1  0.00231008  0.70471417  0.25133465  1.0
  Li+  Li23  1  0.00133000  0.20573000  0.24867000  1.0
  Li+  Li24  1  0.50133000  0.20573000  0.74867000  1.0
  Li+  Li25  1  0.00133000  0.79693000  0.24867000  1.0
  Li+  Li26  1  0.00133000  0.29693000  0.24867000  1.0
  Li+  Li27  1  0.50133000  0.79693000  0.24867000  1.0
  Li+  Li28  1  0.50101079  0.29969750  0.25086513  1.0
  Li+  Li29  1  0.00316883  0.70731699  0.54964020  1.0
  Li+  Li30  1  0.00133000  0.20573000  0.54693000  1.0
  Li+  Li31  1  0.00035653  0.20401805  0.04499461  1.0
  Li+  Li32  1  0.50133000  0.70573000  0.54693000  1.0
  Li+  Li33  1  0.50133000  0.20573000  0.54693000  1.0
  Li+  Li34  1  0.00133000  0.99867000  0.54693000  1.0
  Li+  Li35  1  0.00133000  0.99867000  0.04693000  1.0
  Li+  Li36  1  0.00133000  0.49867000  0.04693000  1.0
  Li+  Li37  1  0.50133000  0.49867000  0.54693000  1.0
  Li+  Li38  1  0.50133000  0.99867000  0.04693000  1.0
  Li+  Li39  1  0.50133000  0.49867000  0.04693000  1.0
  Li+  Li40  1  0.20307000  0.99867000  0.74867000  1.0
  Li+  Li41  1  0.70307000  0.99867000  0.74867000  1.0
  Li+  Li42  1  0.70307000  0.99867000  0.24867000  1.0
  Li+  Li43  1  0.50133000  0.49867000  0.95573000  1.0
  Li+  Li44  1  0.28889862  0.49755587  0.54537859  1.0
  Li+  Li45  1  0.79427000  0.99867000  0.54693000  1.0
  Li+  Li46  1  0.79427000  0.99867000  0.04693000  1.0
  Li+  Li47  1  0.20307000  0.99867000  0.95573000  1.0
  Li+  Li48  1  0.70307000  0.99867000  0.45573000  1.0
  Li+  Li49  1  0.70307000  0.49867000  0.45573000  1.0
  Sn4+  Sn50  1  0.25000000  0.25000000  0.50000000  1.0
  Sn4+  Sn51  1  0.75157771  0.75216050  0.00395367  1.0
  P5+  P52  1  0.25000000  0.75000000  0.50000000  1.0
  P5+  P53  1  0.24881334  0.75350510  0.99892823  1.0
  P5+  P54  1  0.24858863  0.25057254  0.99683435  1.0
  P5+  P55  1  0.75356958  0.75159170  0.49809911  1.0
  P5+  P56  1  0.75000000  0.25000000  0.50000000  1.0
  P5+  P57  1  0.75000000  0.25000000  0.00000000  1.0
  S2-  S58  1  0.12500000  0.87500000  0.62500000  1.0
  S2-  S59  1  0.12500000  0.37500000  0.62500000  1.0
  S2-  S60  1  0.12666876  0.87627417  0.12552294  1.0
  S2-  S61  1  0.12500000  0.37500000  0.12500000  1.0
  S2-  S62  1  0.62500000  0.87500000  0.62500000  1.0
  S2-  S63  1  0.62488140  0.37769270  0.62308634  1.0
  S2-  S64  1  0.62500000  0.87500000  0.12500000  1.0
  S2-  S65  1  0.62500000  0.37500000  0.12500000  1.0
  S2-  S66  1  0.30900000  0.69100000  0.67700000  1.0
  S2-  S67  1  0.30900000  0.19100000  0.67700000  1.0
  S2-  S68  1  0.30900000  0.69100000  0.17700000  1.0
  S2-  S69  1  0.30900000  0.19100000  0.17700000  1.0
  S2-  S70  1  0.81111987  0.69369429  0.68071311  1.0
  S2-  S71  1  0.80900000  0.19100000  0.67700000  1.0
  S2-  S72  1  0.80900000  0.69100000  0.17700000  1.0
  S2-  S73  1  0.80900000  0.19100000  0.17700000  1.0
  S2-  S74  1  0.30900000  0.69100000  0.44100000  1.0
  S2-  S75  1  0.30900000  0.19100000  0.44100000  1.0
  S2-  S76  1  0.30697944  0.69502898  0.94197500  1.0
  S2-  S77  1  0.30900000  0.19100000  0.94100000  1.0
  S2-  S78  1  0.80900000  0.69100000  0.44100000  1.0
  S2-  S79  1  0.80900000  0.19100000  0.44100000  1.0
  S2-  S80  1  0.80900000  0.69100000  0.94100000  1.0
  S2-  S81  1  0.80874262  0.18930357  0.93970083  1.0
  S2-  S82  1  0.30557021  0.92699161  0.44136821  1.0
  S2-  S83  1  0.31127636  0.42232162  0.44262450  1.0
  S2-  S84  1  0.30900000  0.92700000  0.94100000  1.0
  S2-  S85  1  0.30900000  0.42700000  0.94100000  1.0
  S2-  S86  1  0.81368637  0.93015361  0.43971293  1.0
  S2-  S87  1  0.80900000  0.42700000  0.44100000  1.0
  S2-  S88  1  0.80900000  0.92700000  0.94100000  1.0
  S2-  S89  1  0.80900000  0.42700000  0.94100000  1.0
  S2-  S90  1  0.07300000  0.69100000  0.44100000  1.0
  S2-  S91  1  0.07300000  0.19100000  0.44100000  1.0
  S2-  S92  1  0.07583975  0.69049158  0.93819076  1.0
  S2-  S93  1  0.07300000  0.19100000  0.94100000  1.0
  S2-  S94  1  0.57300000  0.69100000  0.44100000  1.0
  S2-  S95  1  0.57300000  0.19100000  0.44100000  1.0
  S2-  S96  1  0.57300000  0.69100000  0.94100000  1.0
  S2-  S97  1  0.57561789  0.18740138  0.94054097  1.0
  I-  I98  1  0.99700732  0.00107917  0.74652650  1.0
  I-  I99  1  0.00000000  0.50000000  0.75000000  1.0
  I-  I100  1  0.00000000  0.00000000  0.25000000  1.0
  I-  I101  1  0.00000000  0.50000000  0.25000000  1.0
  I-  I102  1  0.49599429  0.99884013  0.75016393  1.0
  I-  I103  1  0.50000000  0.50000000  0.75000000  1.0
  I-  I104  1  0.50328304  0.00321151  0.25159090  1.0
  I-  I105  1  0.50000000  0.50000000  0.25000000  1.0
