# generated using pymatgen
data_Li13SiP(S5I)2
_symmetry_space_group_name_H-M   'P 1'
_cell_length_a   14.47590941
_cell_length_b   14.47590941
_cell_length_c   14.47590941
_cell_angle_alpha   120.00000000
_cell_angle_beta   120.00000000
_cell_angle_gamma   60.00000000
_symmetry_Int_Tables_number   1
_chemical_formula_structural   Li13SiP(S5I)2
_chemical_formula_sum   'Li52 Si4 P4 S40 I8'
_cell_volume   2144.97666590
_cell_formula_units_Z   4
loop_
 _symmetry_equiv_pos_site_id
 _symmetry_equiv_pos_as_xyz
  1  'x, y, z'
loop_
 _atom_type_symbol
 _atom_type_oxidation_number
  Li+  1.0
  Si4+  4.0
  P5+  5.0
  S2-  -2.0
  I-  -1.0
loop_
 _atom_site_type_symbol
 _atom_site_label
 _atom_site_symmetry_multiplicity
 _atom_site_fract_x
 _atom_site_fract_y
 _atom_site_fract_z
 _atom_site_occupancy
  Li+  Li0  1  0.49880500  0.46706167  0.79800500  1.0
  Li+  Li1  1  0.20199500  0.16547167  0.19960500  1.0
  Li+  Li2  1  0.99880500  0.36866167  0.00119500  1.0
  Li+  Li3  1  0.99880500  0.36866167  0.50119500  1.0
  Li+  Li4  1  0.49880500  0.86866167  0.50119500  1.0
  Li+  Li5  1  0.99880500  0.36866167  0.19960500  1.0
  Li+  Li6  1  0.99880500  0.36866167  0.69960500  1.0
  Li+  Li7  1  0.49880500  0.36866167  0.19960500  1.0
  Li+  Li8  1  0.49880500  0.86866167  0.69960500  1.0
  Li+  Li9  1  0.49880500  0.16547167  0.29800500  1.0
  Li+  Li10  1  0.49880500  0.16547167  0.79800500  1.0
  Li+  Li11  1  0.99880500  0.66547167  0.19960500  1.0
  Li+  Li12  1  0.99880500  0.66547167  0.69960500  1.0
  Li+  Li13  1  0.99880500  0.16547167  0.69960500  1.0
  Li+  Li14  1  0.49880500  0.16547167  0.69960500  1.0
  Li+  Li15  1  0.80039500  0.66547167  0.29800500  1.0
  Li+  Li16  1  0.30039500  0.66547167  0.29800500  1.0
  Li+  Li17  1  0.30039500  0.66547167  0.79800500  1.0
  Li+  Li18  1  0.80039500  0.16547167  0.79800500  1.0
  Li+  Li19  1  0.80039500  0.66547167  0.00119500  1.0
  Li+  Li20  1  0.80039500  0.66547167  0.50119500  1.0
  Li+  Li21  1  0.30039500  0.66547167  0.50119500  1.0
  Li+  Li22  1  0.49880500  0.46706167  0.50119500  1.0
  Li+  Li23  1  0.49880500  0.96706167  0.00119500  1.0
  Li+  Li24  1  0.49880500  0.96706167  0.50119500  1.0
  Li+  Li25  1  0.70199500  0.16547167  0.00119500  1.0
  Li+  Li26  1  0.80039500  0.36866167  0.50119500  1.0
  Li+  Li27  1  0.30039500  0.36866167  0.00119500  1.0
  Li+  Li28  1  0.30039500  0.36866167  0.50119500  1.0
  Li+  Li29  1  0.70199500  0.46706167  0.00119500  1.0
  Li+  Li30  1  0.20199500  0.46706167  0.00119500  1.0
  Li+  Li31  1  0.70199500  0.96706167  0.50119500  1.0
  Li+  Li32  1  0.20199500  0.96706167  0.50119500  1.0
  Li+  Li33  1  0.99095000  0.92571667  0.74095000  1.0
  Li+  Li34  1  0.49095000  0.92571667  0.24095000  1.0
  Li+  Li35  1  0.49095000  0.92571667  0.74095000  1.0
  Li+  Li36  1  0.75905000  0.65761667  0.24095000  1.0
  Li+  Li37  1  0.75905000  0.65761667  0.74095000  1.0
  Li+  Li38  1  0.25905000  0.65761667  0.74095000  1.0
  Li+  Li39  1  0.75905000  0.15761667  0.24095000  1.0
  Li+  Li40  1  0.75905000  0.15761667  0.74095000  1.0
  Li+  Li41  1  0.25905000  0.15761667  0.24095000  1.0
  Li+  Li42  1  0.99095000  0.42571667  0.00905000  1.0
  Li+  Li43  1  0.49095000  0.42571667  0.00905000  1.0
  Li+  Li44  1  0.99095000  0.92571667  0.50905000  1.0
  Li+  Li45  1  0.99095000  0.65761667  0.24095000  1.0
  Li+  Li46  1  0.99095000  0.65761667  0.74095000  1.0
  Li+  Li47  1  0.49095000  0.65761667  0.74095000  1.0
  Li+  Li48  1  0.99095000  0.15761667  0.24095000  1.0
  Li+  Li49  1  0.75905000  0.65761667  0.00905000  1.0
  Li+  Li50  1  0.25905000  0.15761667  0.00905000  1.0
  Li+  Li51  1  0.25905000  0.92571667  0.00905000  1.0
  Si4+  Si52  1  0.75000000  0.41666667  0.75000000  1.0
  Si4+  Si53  1  0.25000000  0.41666667  0.25000000  1.0
  Si4+  Si54  1  0.25000000  0.41666667  0.75000000  1.0
  Si4+  Si55  1  0.25000000  0.91666667  0.75000000  1.0
  P5+  P56  1  0.75000000  0.41666667  0.25000000  1.0
  P5+  P57  1  0.75000000  0.91666667  0.25000000  1.0
  P5+  P58  1  0.75000000  0.91666667  0.75000000  1.0
  P5+  P59  1  0.25000000  0.91666667  0.25000000  1.0
  S2-  S60  1  0.87500000  0.54166667  0.12500000  1.0
  S2-  S61  1  0.87500000  0.54166667  0.62500000  1.0
  S2-  S62  1  0.37500000  0.54166667  0.12500000  1.0
  S2-  S63  1  0.37500000  0.54166667  0.62500000  1.0
  S2-  S64  1  0.87500000  0.04166667  0.12500000  1.0
  S2-  S65  1  0.87500000  0.04166667  0.62500000  1.0
  S2-  S66  1  0.37500000  0.04166667  0.12500000  1.0
  S2-  S67  1  0.37500000  0.04166667  0.62500000  1.0
  S2-  S68  1  0.92625000  0.35791667  0.30875000  1.0
  S2-  S69  1  0.92625000  0.35791667  0.80875000  1.0
  S2-  S70  1  0.42625000  0.35791667  0.30875000  1.0
  S2-  S71  1  0.42625000  0.35791667  0.80875000  1.0
  S2-  S72  1  0.92625000  0.85791667  0.30875000  1.0
  S2-  S73  1  0.92625000  0.85791667  0.80875000  1.0
  S2-  S74  1  0.42625000  0.85791667  0.30875000  1.0
  S2-  S75  1  0.42625000  0.85791667  0.80875000  1.0
  S2-  S76  1  0.69125000  0.35791667  0.30875000  1.0
  S2-  S77  1  0.69125000  0.35791667  0.80875000  1.0
  S2-  S78  1  0.19125000  0.35791667  0.30875000  1.0
  S2-  S79  1  0.19125000  0.35791667  0.80875000  1.0
  S2-  S80  1  0.69125000  0.85791667  0.30875000  1.0
  S2-  S81  1  0.69125000  0.85791667  0.80875000  1.0
  S2-  S82  1  0.19125000  0.85791667  0.30875000  1.0
  S2-  S83  1  0.19125000  0.85791667  0.80875000  1.0
  S2-  S84  1  0.69125000  0.35791667  0.07375000  1.0
  S2-  S85  1  0.69125000  0.35791667  0.57375000  1.0
  S2-  S86  1  0.19125000  0.35791667  0.07375000  1.0
  S2-  S87  1  0.19125000  0.35791667  0.57375000  1.0
  S2-  S88  1  0.69125000  0.85791667  0.07375000  1.0
  S2-  S89  1  0.69125000  0.85791667  0.57375000  1.0
  S2-  S90  1  0.19125000  0.85791667  0.07375000  1.0
  S2-  S91  1  0.19125000  0.85791667  0.57375000  1.0
  S2-  S92  1  0.69125000  0.59291667  0.30875000  1.0
  S2-  S93  1  0.69125000  0.59291667  0.80875000  1.0
  S2-  S94  1  0.19125000  0.59291667  0.30875000  1.0
  S2-  S95  1  0.19125000  0.59291667  0.80875000  1.0
  S2-  S96  1  0.69125000  0.09291667  0.30875000  1.0
  S2-  S97  1  0.69125000  0.09291667  0.80875000  1.0
  S2-  S98  1  0.19125000  0.09291667  0.30875000  1.0
  S2-  S99  1  0.19125000  0.09291667  0.80875000  1.0
  I-  I100  1  0.00000000  0.66666667  0.00000000  1.0
  I-  I101  1  0.00000000  0.66666667  0.50000000  1.0
  I-  I102  1  0.50000000  0.66666667  0.00000000  1.0
  I-  I103  1  0.50000000  0.66666667  0.50000000  1.0
  I-  I104  1  0.00000000  0.16666667  0.00000000  1.0
  I-  I105  1  0.00000000  0.16666667  0.50000000  1.0
  I-  I106  1  0.50000000  0.16666667  0.00000000  1.0
  I-  I107  1  0.50000000  0.16666667  0.50000000  1.0
