# generated using pymatgen
data_Li3Ce4B12(H12Cl)4
_symmetry_space_group_name_H-M   'P 1'
_cell_length_a   20.30034560
_cell_length_b   10.15017280
_cell_length_c   10.15017280
_cell_angle_alpha   109.47122063
_cell_angle_beta   109.47122063
_cell_angle_gamma   109.47122063
_symmetry_Int_Tables_number   1
_chemical_formula_structural   Li3Ce4B12(H12Cl)4
_chemical_formula_sum   'Li6 Ce8 B24 H96 Cl8'
_cell_volume   1610.00940369
_cell_formula_units_Z   2
loop_
 _symmetry_equiv_pos_site_id
 _symmetry_equiv_pos_as_xyz
  1  'x, y, z'
loop_
 _atom_type_symbol
 _atom_type_oxidation_number
  Li+  1.0
  Ce3+  3.0
  B3+  3.0
  H-  -1.0
  Cl-  -1.0
loop_
 _atom_site_type_symbol
 _atom_site_label
 _atom_site_symmetry_multiplicity
 _atom_site_fract_x
 _atom_site_fract_y
 _atom_site_fract_z
 _atom_site_occupancy
  Li+  Li0  1  0.12500000  0.50000000  0.75000000  1.0
  Li+  Li0  1  0.62500000  0.50000000  0.75000000  1.0
  Li+  Li1  1  0.37500000  0.50000000  0.25000000  1.0
  Li+  Li1  1  0.87500000  0.50000000  0.25000000  1.0
  Li+  Li2  1  0.12500000  0.75000000  0.50000000  1.0
  Li+  Li2  1  0.62500000  0.75000000  0.50000000  1.0
  Ce3+  Ce1  1  0.35873000  0.71746000  0.71746000  1.0
  Ce3+  Ce1  1  0.85873000  0.71746000  0.71746000  1.0
  Ce3+  Ce1  1  0.00000000  0.00000000  0.28254000  1.0
  Ce3+  Ce1  1  0.50000000  0.00000000  0.28254000  1.0
  Ce3+  Ce1  1  0.00000000  0.28254000  0.00000000  1.0
  Ce3+  Ce1  1  0.50000000  0.28254000  0.00000000  1.0
  Ce3+  Ce1  1  0.14127000  0.00000000  0.00000000  1.0
  Ce3+  Ce1  1  0.64127000  0.00000000  0.00000000  1.0
  B3+  B1  1  0.25245000  0.50490000  0.75680000  1.0
  B3+  B1  1  0.75245000  0.50490000  0.75680000  1.0
  B3+  B1  1  0.37840000  0.50490000  0.50490000  1.0
  B3+  B1  1  0.87840000  0.50490000  0.50490000  1.0
  B3+  B1  1  0.25245000  0.75680000  0.50490000  1.0
  B3+  B1  1  0.75245000  0.75680000  0.50490000  1.0
  B3+  B1  1  0.37405000  0.74810000  0.24320000  1.0
  B3+  B1  1  0.87405000  0.74810000  0.24320000  1.0
  B3+  B1  1  0.00000000  0.25190000  0.49510000  1.0
  B3+  B1  1  0.50000000  0.25190000  0.49510000  1.0
  B3+  B1  1  0.12595000  0.00000000  0.49510000  1.0
  B3+  B1  1  0.62595000  0.00000000  0.49510000  1.0
  B3+  B1  1  0.12595000  0.49510000  0.00000000  1.0
  B3+  B1  1  0.62595000  0.49510000  1.00000000  1.0
  B3+  B1  1  0.00000000  0.49510000  0.25190000  1.0
  B3+  B1  1  0.50000000  0.49510000  0.25190000  1.0
  B3+  B1  1  0.37405000  0.24320000  0.74810000  1.0
  B3+  B1  1  0.87405000  0.24320000  0.74810000  1.0
  B3+  B1  1  0.24755000  0.25190000  0.00000000  1.0
  B3+  B1  1  0.74755000  0.25190000  0.00000000  1.0
  B3+  B1  1  0.12160000  0.74810000  0.74810000  1.0
  B3+  B1  1  0.62160000  0.74810000  0.74810000  1.0
  B3+  B1  1  0.24755000  0.00000000  0.25190000  1.0
  B3+  B1  1  0.74755000  0.00000000  0.25190000  1.0
  H-  H1  1  0.32215000  0.52380000  0.82790000  1.0
  H-  H1  1  0.82215000  0.52380000  0.82790000  1.0
  H-  H1  1  0.41395000  0.64430000  0.52380000  1.0
  H-  H1  1  0.91395000  0.64430000  0.52380000  1.0
  H-  H1  1  0.26190000  0.82790000  0.64430000  1.0
  H-  H1  1  0.76190000  0.82790000  0.64430000  1.0
  H-  H1  1  0.26190000  0.64430000  0.82790000  1.0
  H-  H1  1  0.76190000  0.64430000  0.82790000  1.0
  H-  H1  1  0.32215000  0.82790000  0.52380000  1.0
  H-  H1  1  0.82215000  0.82790000  0.52380000  1.0
  H-  H1  1  0.41395000  0.52380000  0.64430000  1.0
  H-  H1  1  0.91395000  0.52380000  0.64430000  1.0
  H-  H1  1  0.34795000  0.81640000  0.17210000  1.0
  H-  H1  1  0.84795000  0.81640000  0.17210000  1.0
  H-  H1  1  0.06025000  0.30410000  0.47620000  1.0
  H-  H1  1  0.56025000  0.30410000  0.47620000  1.0
  H-  H1  1  0.09180000  0.87950000  0.35570000  1.0
  H-  H1  1  0.59180000  0.87950000  0.35570000  1.0
  H-  H1  1  0.40820000  0.69590000  0.17210000  1.0
  H-  H1  1  0.90820000  0.69590000  0.17210000  1.0
  H-  H1  1  0.15205000  0.12050000  0.47620000  1.0
  H-  H1  1  0.65205000  0.12050000  0.47620000  1.0
  H-  H1  1  0.43975000  0.18360000  0.35570000  1.0
  H-  H1  1  0.93975000  0.18360000  0.35570000  1.0
  H-  H1  1  0.15205000  0.47620000  0.12050000  1.0
  H-  H1  1  0.65205000  0.47620000  0.12050000  1.0
  H-  H1  1  0.43975000  0.35570000  0.18360000  1.0
  H-  H1  1  0.93975000  0.35570000  0.18360000  1.0
  H-  H1  1  0.40820000  0.17210000  0.69590000  1.0
  H-  H1  1  0.90820000  0.17210000  0.69590000  1.0
  H-  H1  1  0.09180000  0.35570000  0.87950000  1.0
  H-  H1  1  0.59180000  0.35570000  0.87950000  1.0
  H-  H1  1  0.34795000  0.17210000  0.81640000  1.0
  H-  H1  1  0.84795000  0.17210000  0.81640000  1.0
  H-  H1  1  0.06025000  0.47620000  0.30410000  1.0
  H-  H1  1  0.56025000  0.47620000  0.30410000  1.0
  H-  H1  1  0.17785000  0.18360000  0.87950000  1.0
  H-  H1  1  0.67785000  0.18360000  0.87950000  1.0
  H-  H1  1  0.08605000  0.69590000  0.81640000  1.0
  H-  H1  1  0.58605000  0.69590000  0.81640000  1.0
  H-  H1  1  0.23810000  0.12050000  0.30410000  1.0
  H-  H1  1  0.73810000  0.12050000  0.30410000  1.0
  H-  H1  1  0.23810000  0.30410000  0.12050000  1.0
  H-  H1  1  0.73810000  0.30410000  0.12050000  1.0
  H-  H1  1  0.17785000  0.87950000  0.18360000  1.0
  H-  H1  1  0.67785000  0.87950000  0.18360000  1.0
  H-  H1  1  0.08605000  0.81640000  0.69590000  1.0
  H-  H1  1  0.58605000  0.81640000  0.69590000  1.0
  H-  H2  1  0.20525000  0.41050000  0.77640000  1.0
  H-  H2  1  0.70525000  0.41050000  0.77640000  1.0
  H-  H2  1  0.38820000  0.41050000  0.41050000  1.0
  H-  H2  1  0.88820000  0.41050000  0.41050000  1.0
  H-  H2  1  0.20525000  0.77640000  0.41050000  1.0
  H-  H2  1  0.70525000  0.77640000  0.41050000  1.0
  H-  H2  1  0.31705000  0.63410000  0.22360000  1.0
  H-  H2  1  0.81705000  0.63410000  0.22360000  1.0
  H-  H2  1  0.00000000  0.36590000  0.58950000  1.0
  H-  H2  1  0.50000000  0.36590000  0.58950000  1.0
  H-  H2  1  0.18295000  0.00000000  0.58950000  1.0
  H-  H2  1  0.68295000  0.00000000  0.58950000  1.0
  H-  H2  1  0.18295000  0.58950000  0.00000000  1.0
  H-  H2  1  0.68295000  0.58950000  0.00000000  1.0
  H-  H2  1  0.00000000  0.58950000  0.36590000  1.0
  H-  H2  1  0.50000000  0.58950000  0.36590000  1.0
  H-  H2  1  0.31705000  0.22360000  0.63410000  1.0
  H-  H2  1  0.81705000  0.22360000  0.63410000  1.0
  H-  H2  1  0.29475000  0.36590000  0.00000000  1.0
  H-  H2  1  0.79475000  0.36590000  0.00000000  1.0
  H-  H2  1  0.11180000  0.63410000  0.63410000  1.0
  H-  H2  1  0.61180000  0.63410000  0.63410000  1.0
  H-  H2  1  0.29475000  0.00000000  0.36590000  1.0
  H-  H2  1  0.79475000  0.00000000  0.36590000  1.0
  H-  H3  1  0.23160000  0.46320000  0.62220000  1.0
  H-  H3  1  0.73160000  0.46320000  0.62220000  1.0
  H-  H3  1  0.31110000  0.46320000  0.46320000  1.0
  H-  H3  1  0.81110000  0.46320000  0.46320000  1.0
  H-  H3  1  0.23160000  0.62220000  0.46320000  1.0
  H-  H3  1  0.73160000  0.62220000  0.46320000  1.0
  H-  H3  1  0.42050000  0.84100000  0.37780000  1.0
  H-  H3  1  0.92050000  0.84100000  0.37780000  1.0
  H-  H3  1  0.00000000  0.15900000  0.53680000  1.0
  H-  H3  1  0.50000000  0.15900000  0.53680000  1.0
  H-  H3  1  0.07950000  0.00000000  0.53680000  1.0
  H-  H3  1  0.57950000  0.00000000  0.53680000  1.0
  H-  H3  1  0.07950000  0.53680000  1.00000000  1.0
  H-  H3  1  0.57950000  0.53680000  0.00000000  1.0
  H-  H3  1  0.00000000  0.53680000  0.15900000  1.0
  H-  H3  1  0.50000000  0.53680000  0.15900000  1.0
  H-  H3  1  0.42050000  0.37780000  0.84100000  1.0
  H-  H3  1  0.92050000  0.37780000  0.84100000  1.0
  H-  H3  1  0.26840000  0.15900000  0.00000000  1.0
  H-  H3  1  0.76840000  0.15900000  0.00000000  1.0
  H-  H3  1  0.18890000  0.84100000  0.84100000  1.0
  H-  H3  1  0.68890000  0.84100000  0.84100000  1.0
  H-  H3  1  0.26840000  0.00000000  0.15900000  1.0
  H-  H3  1  0.76840000  0.00000000  0.15900000  1.0
  Cl-  Cl1  1  0.10660000  0.21320000  0.21320000  1.0
  Cl-  Cl1  1  0.60660000  0.21320000  0.21320000  1.0
  Cl-  Cl1  1  0.00000000  0.00000000  0.78680000  1.0
  Cl-  Cl1  1  0.50000000  0.00000000  0.78680000  1.0
  Cl-  Cl1  1  0.00000000  0.78680000  1.00000000  1.0
  Cl-  Cl1  1  0.50000000  0.78680000  1.00000000  1.0
  Cl-  Cl1  1  0.39340000  0.00000000  0.00000000  1.0
  Cl-  Cl1  1  0.89340000  0.00000000  0.00000000  1.0
