# generated using pymatgen
data_LiPN2
_symmetry_space_group_name_H-M   'P 1'
_cell_length_a   27.45000000
_cell_length_b   9.61910464
_cell_length_c   9.15000000
_cell_angle_alpha   118.39946483
_cell_angle_beta   90.00000000
_cell_angle_gamma   61.60053517
_symmetry_Int_Tables_number   1
_chemical_formula_structural   LiPN2
_chemical_formula_sum   'Li48 P48 N96'
_cell_volume   1787.81026557
_cell_formula_units_Z   48
loop_
 _symmetry_equiv_pos_site_id
 _symmetry_equiv_pos_as_xyz
  1  'x, y, z'
loop_
 _atom_type_symbol
 _atom_type_oxidation_number
  Li+  1.0
  P5+  5.0
  N3-  -3.0
loop_
 _atom_site_type_symbol
 _atom_site_label
 _atom_site_symmetry_multiplicity
 _atom_site_fract_x
 _atom_site_fract_y
 _atom_site_fract_z
 _atom_site_occupancy
  Li+  Li0  1  0.12500000  0.75000000  0.62500000  1.0
  Li+  Li1  1  0.45833333  0.75000000  0.62500000  1.0
  Li+  Li2  1  0.79014028  0.75068313  0.62875033  1.0
  Li+  Li3  1  0.12644835  0.24926732  0.62495899  1.0
  Li+  Li4  1  0.45833333  0.25000000  0.62500000  1.0
  Li+  Li5  1  0.79166667  0.25000000  0.62500000  1.0
  Li+  Li6  1  0.12500000  0.75000000  0.12500000  1.0
  Li+  Li7  1  0.45833333  0.75000000  0.12500000  1.0
  Li+  Li8  1  0.78815349  0.74766389  0.12532709  1.0
  Li+  Li9  1  0.12500000  0.25000000  0.12500000  1.0
  Li+  Li10  1  0.45833333  0.25000000  0.12500000  1.0
  Li+  Li11  1  0.79163387  0.24983536  0.12613299  1.0
  Li+  Li12  1  0.28730940  0.75431067  0.62543487  1.0
  Li+  Li13  1  0.62415286  0.74416520  0.62795555  1.0
  Li+  Li14  1  0.95833333  0.75000000  0.62500000  1.0
  Li+  Li15  1  0.29166667  0.25000000  0.62500000  1.0
  Li+  Li16  1  0.62500000  0.25000000  0.62500000  1.0
  Li+  Li17  1  0.95833333  0.25000000  0.62500000  1.0
  Li+  Li18  1  0.29292802  0.74632430  0.12743080  1.0
  Li+  Li19  1  0.62500000  0.75000000  0.12500000  1.0
  Li+  Li20  1  0.95893683  0.74863507  0.12690569  1.0
  Li+  Li21  1  0.29166667  0.25000000  0.12500000  1.0
  Li+  Li22  1  0.62757530  0.24929852  0.11916958  1.0
  Li+  Li23  1  0.95833333  0.25000000  0.12500000  1.0
  Li+  Li24  1  0.08333333  0.50000000  0.50000000  1.0
  Li+  Li25  1  0.41666667  0.50000000  0.50000000  1.0
  Li+  Li26  1  0.75000000  0.50000000  0.50000000  1.0
  Li+  Li27  1  0.08333333  0.00000000  0.50000000  1.0
  Li+  Li28  1  0.41666667  0.00000000  0.50000000  1.0
  Li+  Li29  1  0.75000000  0.00000000  0.50000000  1.0
  Li+  Li30  1  0.08333333  0.50000000  0.00000000  1.0
  Li+  Li31  1  0.41666667  0.50000000  0.00000000  1.0
  Li+  Li32  1  0.74848812  0.50365303  0.99988346  1.0
  Li+  Li33  1  0.08333333  0.00000000  0.00000000  1.0
  Li+  Li34  1  0.41448290  0.00264648  0.00172799  1.0
  Li+  Li35  1  0.75000000  0.00000000  0.00000000  1.0
  Li+  Li36  1  0.25240153  0.49753948  0.50347621  1.0
  Li+  Li37  1  0.58333333  0.50000000  0.50000000  1.0
  Li+  Li38  1  0.91666667  0.50000000  0.50000000  1.0
  Li+  Li39  1  0.25000000  0.00000000  0.50000000  1.0
  Li+  Li40  1  0.58333333  0.00000000  0.50000000  1.0
  Li+  Li41  1  0.91608551  0.99969126  0.49479715  1.0
  Li+  Li42  1  0.25288807  0.50016312  0.99823763  1.0
  Li+  Li43  1  0.58333333  0.50000000  0.00000000  1.0
  Li+  Li44  1  0.91666667  0.50000000  0.00000000  1.0
  Li+  Li45  1  0.25000000  0.00000000  0.00000000  1.0
  Li+  Li46  1  0.58333333  0.00000000  0.00000000  1.0
  Li+  Li47  1  0.91666667  0.00000000  0.00000000  1.0
  P5+  P48  1  0.04400554  0.75285891  0.37766624  1.0
  P5+  P49  1  0.37500000  0.75000000  0.37500000  1.0
  P5+  P50  1  0.70833333  0.75000000  0.37500000  1.0
  P5+  P51  1  0.04166667  0.25000000  0.37500000  1.0
  P5+  P52  1  0.37321728  0.24897934  0.37178828  1.0
  P5+  P53  1  0.70833333  0.25000000  0.37500000  1.0
  P5+  P54  1  0.04166667  0.75000000  0.87500000  1.0
  P5+  P55  1  0.37212335  0.74717657  0.87485080  1.0
  P5+  P56  1  0.70617340  0.74810236  0.87822534  1.0
  P5+  P57  1  0.04166667  0.25000000  0.87500000  1.0
  P5+  P58  1  0.37730730  0.25643876  0.87477287  1.0
  P5+  P59  1  0.70833333  0.25000000  0.87500000  1.0
  P5+  P60  1  0.20833333  0.75000000  0.37500000  1.0
  P5+  P61  1  0.54166667  0.75000000  0.37500000  1.0
  P5+  P62  1  0.87413036  0.74729524  0.37721222  1.0
  P5+  P63  1  0.20833333  0.25000000  0.37500000  1.0
  P5+  P64  1  0.54166667  0.25000000  0.37500000  1.0
  P5+  P65  1  0.87465059  0.25046251  0.37345181  1.0
  P5+  P66  1  0.21159301  0.75212809  0.87590641  1.0
  P5+  P67  1  0.54166667  0.75000000  0.87500000  1.0
  P5+  P68  1  0.87500000  0.75000000  0.87500000  1.0
  P5+  P69  1  0.21054490  0.24951185  0.87680299  1.0
  P5+  P70  1  0.54166667  0.25000000  0.87500000  1.0
  P5+  P71  1  0.87500000  0.25000000  0.87500000  1.0
  P5+  P72  1  0.00000000  0.00000000  0.75000000  1.0
  P5+  P73  1  0.33333333  0.00000000  0.75000000  1.0
  P5+  P74  1  0.66666667  0.00000000  0.75000000  1.0
  P5+  P75  1  0.00000000  0.50000000  0.75000000  1.0
  P5+  P76  1  0.33559317  0.49917584  0.74390578  1.0
  P5+  P77  1  0.66666667  0.50000000  0.75000000  1.0
  P5+  P78  1  0.00000000  0.00000000  0.25000000  1.0
  P5+  P79  1  0.33333333  0.00000000  0.25000000  1.0
  P5+  P80  1  0.66666667  0.00000000  0.25000000  1.0
  P5+  P81  1  0.00000000  0.50000000  0.25000000  1.0
  P5+  P82  1  0.33333333  0.50000000  0.25000000  1.0
  P5+  P83  1  0.66666667  0.50000000  0.25000000  1.0
  P5+  P84  1  0.16666667  0.00000000  0.75000000  1.0
  P5+  P85  1  0.50000000  0.00000000  0.75000000  1.0
  P5+  P86  1  0.83333333  0.00000000  0.75000000  1.0
  P5+  P87  1  0.16666667  0.50000000  0.75000000  1.0
  P5+  P88  1  0.49939546  0.49477690  0.75338973  1.0
  P5+  P89  1  0.83333333  0.50000000  0.75000000  1.0
  P5+  P90  1  0.16584247  0.99789998  0.24890799  1.0
  P5+  P91  1  0.50000000  0.00000000  0.25000000  1.0
  P5+  P92  1  0.83333333  0.00000000  0.25000000  1.0
  P5+  P93  1  0.16666667  0.50000000  0.25000000  1.0
  P5+  P94  1  0.50000000  0.50000000  0.25000000  1.0
  P5+  P95  1  0.83654768  0.49782804  0.24848475  1.0
  N3-  N96  1  0.02083333  0.62500000  0.39745000  1.0
  N3-  N97  1  0.35416667  0.62500000  0.39745000  1.0
  N3-  N98  1  0.68750000  0.62500000  0.39745000  1.0
  N3-  N99  1  0.02083333  0.12500000  0.39745000  1.0
  N3-  N100  1  0.35416667  0.12500000  0.39745000  1.0
  N3-  N101  1  0.68750000  0.12500000  0.39745000  1.0
  N3-  N102  1  0.02083333  0.62500000  0.89745000  1.0
  N3-  N103  1  0.35416667  0.62500000  0.89745000  1.0
  N3-  N104  1  0.68750000  0.62500000  0.89745000  1.0
  N3-  N105  1  0.02083333  0.12500000  0.89745000  1.0
  N3-  N106  1  0.35418662  0.13062491  0.89970847  1.0
  N3-  N107  1  0.68750000  0.12500000  0.89745000  1.0
  N3-  N108  1  0.18750000  0.62500000  0.39745000  1.0
  N3-  N109  1  0.51918265  0.62551719  0.39733599  1.0
  N3-  N110  1  0.85416667  0.62500000  0.39745000  1.0
  N3-  N111  1  0.18679095  0.12321395  0.39640498  1.0
  N3-  N112  1  0.52083333  0.12500000  0.39745000  1.0
  N3-  N113  1  0.85416667  0.12500000  0.39745000  1.0
  N3-  N114  1  0.18750000  0.62500000  0.89745000  1.0
  N3-  N115  1  0.52083333  0.62500000  0.89745000  1.0
  N3-  N116  1  0.85416667  0.62500000  0.89745000  1.0
  N3-  N117  1  0.18906813  0.12315770  0.89650887  1.0
  N3-  N118  1  0.52083333  0.12500000  0.89745000  1.0
  N3-  N119  1  0.85416667  0.12500000  0.89745000  1.0
  N3-  N120  1  0.10416667  0.62500000  0.72755000  1.0
  N3-  N121  1  0.43750000  0.62500000  0.72755000  1.0
  N3-  N122  1  0.77083333  0.62500000  0.72755000  1.0
  N3-  N123  1  0.10416667  0.12500000  0.72755000  1.0
  N3-  N124  1  0.43750000  0.12500000  0.72755000  1.0
  N3-  N125  1  0.77083333  0.12500000  0.72755000  1.0
  N3-  N126  1  0.10416667  0.62500000  0.22755000  1.0
  N3-  N127  1  0.43750000  0.62500000  0.22755000  1.0
  N3-  N128  1  0.77083333  0.62500000  0.22755000  1.0
  N3-  N129  1  0.10416667  0.12500000  0.22755000  1.0
  N3-  N130  1  0.43750000  0.12500000  0.22755000  1.0
  N3-  N131  1  0.77275286  0.13174318  0.22794979  1.0
  N3-  N132  1  0.26691451  0.62340568  0.72990264  1.0
  N3-  N133  1  0.60416667  0.62500000  0.72755000  1.0
  N3-  N134  1  0.93870120  0.62640857  0.72760005  1.0
  N3-  N135  1  0.26793812  0.12759829  0.73037548  1.0
  N3-  N136  1  0.60416667  0.12500000  0.72755000  1.0
  N3-  N137  1  0.93750000  0.12500000  0.72755000  1.0
  N3-  N138  1  0.26996855  0.62400051  0.22419196  1.0
  N3-  N139  1  0.60416667  0.62500000  0.22755000  1.0
  N3-  N140  1  0.93868445  0.62556139  0.22960450  1.0
  N3-  N141  1  0.27083333  0.12500000  0.22755000  1.0
  N3-  N142  1  0.60536994  0.12596847  0.22478960  1.0
  N3-  N143  1  0.93750000  0.12500000  0.22755000  1.0
  N3-  N144  1  0.04915000  0.87500000  0.56250000  1.0
  N3-  N145  1  0.38248333  0.87500000  0.56250000  1.0
  N3-  N146  1  0.71581667  0.87500000  0.56250000  1.0
  N3-  N147  1  0.04915000  0.37500000  0.56250000  1.0
  N3-  N148  1  0.38248333  0.37500000  0.56250000  1.0
  N3-  N149  1  0.71581667  0.37500000  0.56250000  1.0
  N3-  N150  1  0.04915000  0.87500000  0.06250000  1.0
  N3-  N151  1  0.38248333  0.87500000  0.06250000  1.0
  N3-  N152  1  0.71581667  0.87500000  0.06250000  1.0
  N3-  N153  1  0.04915000  0.37500000  0.06250000  1.0
  N3-  N154  1  0.38248333  0.37500000  0.06250000  1.0
  N3-  N155  1  0.71581667  0.37500000  0.06250000  1.0
  N3-  N156  1  0.21581667  0.87500000  0.56250000  1.0
  N3-  N157  1  0.54915000  0.87500000  0.56250000  1.0
  N3-  N158  1  0.88248333  0.87500000  0.56250000  1.0
  N3-  N159  1  0.21410477  0.37786712  0.56274244  1.0
  N3-  N160  1  0.54915000  0.37500000  0.56250000  1.0
  N3-  N161  1  0.88248333  0.37500000  0.56250000  1.0
  N3-  N162  1  0.21518757  0.86914209  0.06536957  1.0
  N3-  N163  1  0.54915000  0.87500000  0.06250000  1.0
  N3-  N164  1  0.88248333  0.87500000  0.06250000  1.0
  N3-  N165  1  0.21581667  0.37500000  0.06250000  1.0
  N3-  N166  1  0.54915000  0.37500000  0.06250000  1.0
  N3-  N167  1  0.88095856  0.37862809  0.05589297  1.0
  N3-  N168  1  0.15814648  0.87351773  0.31382131  1.0
  N3-  N169  1  0.49234543  0.87743745  0.31251113  1.0
  N3-  N170  1  0.82896472  0.87282234  0.31723898  1.0
  N3-  N171  1  0.15918333  0.37500000  0.31250000  1.0
  N3-  N172  1  0.49251667  0.37500000  0.31250000  1.0
  N3-  N173  1  0.82585000  0.37500000  0.31250000  1.0
  N3-  N174  1  0.15808858  0.87120354  0.81191356  1.0
  N3-  N175  1  0.49251667  0.87500000  0.81250000  1.0
  N3-  N176  1  0.82585000  0.87500000  0.81250000  1.0
  N3-  N177  1  0.15918333  0.37500000  0.81250000  1.0
  N3-  N178  1  0.49251667  0.37500000  0.81250000  1.0
  N3-  N179  1  0.82585000  0.37500000  0.81250000  1.0
  N3-  N180  1  0.32585000  0.87500000  0.31250000  1.0
  N3-  N181  1  0.65918333  0.87500000  0.31250000  1.0
  N3-  N182  1  0.99251667  0.87500000  0.31250000  1.0
  N3-  N183  1  0.32564716  0.37450439  0.31346875  1.0
  N3-  N184  1  0.65918333  0.37500000  0.31250000  1.0
  N3-  N185  1  0.99104969  0.37479167  0.31640318  1.0
  N3-  N186  1  0.32585000  0.87500000  0.81250000  1.0
  N3-  N187  1  0.65918333  0.87500000  0.81250000  1.0
  N3-  N188  1  0.99251667  0.87500000  0.81250000  1.0
  N3-  N189  1  0.32585000  0.37500000  0.81250000  1.0
  N3-  N190  1  0.65821803  0.37101649  0.80730457  1.0
  N3-  N191  1  0.99251667  0.37500000  0.81250000  1.0
