# generated using pymatgen
data_LiPN2
_symmetry_space_group_name_H-M   'P 1'
_cell_length_a   27.45000000
_cell_length_b   9.15000000
_cell_length_c   9.61910464
_cell_angle_alpha   118.39946483
_cell_angle_beta   118.39946483
_cell_angle_gamma   90.00000000
_symmetry_Int_Tables_number   1
_chemical_formula_structural   LiPN2
_chemical_formula_sum   'Li48 P48 N96'
_cell_volume   1787.81026557
_cell_formula_units_Z   48
loop_
 _symmetry_equiv_pos_site_id
 _symmetry_equiv_pos_as_xyz
  1  'x, y, z'
loop_
 _atom_type_symbol
 _atom_type_oxidation_number
  Li+  1.0
  P5+  5.0
  N3-  -3.0
loop_
 _atom_site_type_symbol
 _atom_site_label
 _atom_site_symmetry_multiplicity
 _atom_site_fract_x
 _atom_site_fract_y
 _atom_site_fract_z
 _atom_site_occupancy
  Li+  Li1  1  0.12500000  0.12500000  0.25000000  1.0
  Li+  Li1  1  0.45833333  0.12500000  0.25000000  1.0
  Li+  Li1  1  0.79166667  0.12500000  0.25000000  1.0
  Li+  Li1  1  0.12500000  0.12500000  0.75000000  1.0
  Li+  Li1  1  0.45833333  0.12500000  0.75000000  1.0
  Li+  Li1  1  0.79166667  0.12500000  0.75000000  1.0
  Li+  Li1  1  0.12500000  0.62500000  0.25000000  1.0
  Li+  Li1  1  0.45833333  0.62500000  0.25000000  1.0
  Li+  Li1  1  0.79166667  0.62500000  0.25000000  1.0
  Li+  Li1  1  0.12500000  0.62500000  0.75000000  1.0
  Li+  Li1  1  0.45833333  0.62500000  0.75000000  1.0
  Li+  Li1  1  0.79166667  0.62500000  0.75000000  1.0
  Li+  Li1  1  0.29166667  0.12500000  0.25000000  1.0
  Li+  Li1  1  0.62500000  0.12500000  0.25000000  1.0
  Li+  Li1  1  0.95833333  0.12500000  0.25000000  1.0
  Li+  Li1  1  0.29166667  0.12500000  0.75000000  1.0
  Li+  Li1  1  0.62500000  0.12500000  0.75000000  1.0
  Li+  Li1  1  0.95833333  0.12500000  0.75000000  1.0
  Li+  Li1  1  0.29166667  0.62500000  0.25000000  1.0
  Li+  Li1  1  0.62500000  0.62500000  0.25000000  1.0
  Li+  Li1  1  0.95833333  0.62500000  0.25000000  1.0
  Li+  Li1  1  0.29166667  0.62500000  0.75000000  1.0
  Li+  Li1  1  0.62500000  0.62500000  0.75000000  1.0
  Li+  Li1  1  0.95833333  0.62500000  0.75000000  1.0
  Li+  Li1  1  0.08333333  0.25000000  0.50000000  1.0
  Li+  Li1  1  0.41666667  0.25000000  0.50000000  1.0
  Li+  Li1  1  0.75000000  0.25000000  0.50000000  1.0
  Li+  Li1  1  0.08333333  0.25000000  0.00000000  1.0
  Li+  Li1  1  0.41666667  0.25000000  0.00000000  1.0
  Li+  Li1  1  0.75000000  0.25000000  0.00000000  1.0
  Li+  Li1  1  0.08333333  0.75000000  0.50000000  1.0
  Li+  Li1  1  0.41666667  0.75000000  0.50000000  1.0
  Li+  Li1  1  0.75000000  0.75000000  0.50000000  1.0
  Li+  Li1  1  0.08333333  0.75000000  0.00000000  1.0
  Li+  Li1  1  0.41666667  0.75000000  0.00000000  1.0
  Li+  Li1  1  0.75000000  0.75000000  1.00000000  1.0
  Li+  Li1  1  0.25000000  0.25000000  0.50000000  1.0
  Li+  Li1  1  0.58333333  0.25000000  0.50000000  1.0
  Li+  Li1  1  0.91666667  0.25000000  0.50000000  1.0
  Li+  Li1  1  0.25000000  0.25000000  0.00000000  1.0
  Li+  Li1  1  0.58333333  0.25000000  1.00000000  1.0
  Li+  Li1  1  0.91666667  0.25000000  1.00000000  1.0
  Li+  Li1  1  0.25000000  0.75000000  0.50000000  1.0
  Li+  Li1  1  0.58333333  0.75000000  0.50000000  1.0
  Li+  Li1  1  0.91666667  0.75000000  0.50000000  1.0
  Li+  Li1  1  0.25000000  0.75000000  0.00000000  1.0
  Li+  Li1  1  0.58333333  0.75000000  0.00000000  1.0
  Li+  Li1  1  0.91666667  0.75000000  1.00000000  1.0
  P5+  P1  1  0.04166667  0.37500000  0.25000000  1.0
  P5+  P1  1  0.37500000  0.37500000  0.25000000  1.0
  P5+  P1  1  0.70833333  0.37500000  0.25000000  1.0
  P5+  P1  1  0.04166667  0.37500000  0.75000000  1.0
  P5+  P1  1  0.37500000  0.37500000  0.75000000  1.0
  P5+  P1  1  0.70833333  0.37500000  0.75000000  1.0
  P5+  P1  1  0.04166667  0.87500000  0.25000000  1.0
  P5+  P1  1  0.37500000  0.87500000  0.25000000  1.0
  P5+  P1  1  0.70833333  0.87500000  0.25000000  1.0
  P5+  P1  1  0.04166667  0.87500000  0.75000000  1.0
  P5+  P1  1  0.37500000  0.87500000  0.75000000  1.0
  P5+  P1  1  0.70833333  0.87500000  0.75000000  1.0
  P5+  P1  1  0.20833333  0.37500000  0.25000000  1.0
  P5+  P1  1  0.54166667  0.37500000  0.25000000  1.0
  P5+  P1  1  0.87500000  0.37500000  0.25000000  1.0
  P5+  P1  1  0.20833333  0.37500000  0.75000000  1.0
  P5+  P1  1  0.54166667  0.37500000  0.75000000  1.0
  P5+  P1  1  0.87500000  0.37500000  0.75000000  1.0
  P5+  P1  1  0.20833333  0.87500000  0.25000000  1.0
  P5+  P1  1  0.54166667  0.87500000  0.25000000  1.0
  P5+  P1  1  0.87500000  0.87500000  0.25000000  1.0
  P5+  P1  1  0.20833333  0.87500000  0.75000000  1.0
  P5+  P1  1  0.54166667  0.87500000  0.75000000  1.0
  P5+  P1  1  0.87500000  0.87500000  0.75000000  1.0
  P5+  P1  1  0.00000000  0.00000000  0.00000000  1.0
  P5+  P1  1  0.33333333  0.00000000  0.00000000  1.0
  P5+  P1  1  0.66666667  0.00000000  1.00000000  1.0
  P5+  P1  1  0.00000000  0.00000000  0.50000000  1.0
  P5+  P1  1  0.33333333  0.00000000  0.50000000  1.0
  P5+  P1  1  0.66666667  0.00000000  0.50000000  1.0
  P5+  P1  1  0.00000000  0.50000000  0.00000000  1.0
  P5+  P1  1  0.33333333  0.50000000  0.00000000  1.0
  P5+  P1  1  0.66666667  0.50000000  0.00000000  1.0
  P5+  P1  1  0.00000000  0.50000000  0.50000000  1.0
  P5+  P1  1  0.33333333  0.50000000  0.50000000  1.0
  P5+  P1  1  0.66666667  0.50000000  0.50000000  1.0
  P5+  P1  1  0.16666667  0.00000000  0.00000000  1.0
  P5+  P1  1  0.50000000  0.00000000  0.00000000  1.0
  P5+  P1  1  0.83333333  0.00000000  0.00000000  1.0
  P5+  P1  1  0.16666667  0.00000000  0.50000000  1.0
  P5+  P1  1  0.50000000  0.00000000  0.50000000  1.0
  P5+  P1  1  0.83333333  0.00000000  0.50000000  1.0
  P5+  P1  1  0.16666667  0.50000000  0.00000000  1.0
  P5+  P1  1  0.50000000  0.50000000  0.00000000  1.0
  P5+  P1  1  0.83333333  0.50000000  1.00000000  1.0
  P5+  P1  1  0.16666667  0.50000000  0.50000000  1.0
  P5+  P1  1  0.50000000  0.50000000  0.50000000  1.0
  P5+  P1  1  0.83333333  0.50000000  0.50000000  1.0
  N3-  N1  1  0.02083333  0.35255000  0.37500000  1.0
  N3-  N1  1  0.35416667  0.35255000  0.37500000  1.0
  N3-  N1  1  0.68750000  0.35255000  0.37500000  1.0
  N3-  N1  1  0.02083333  0.35255000  0.87500000  1.0
  N3-  N1  1  0.35416667  0.35255000  0.87500000  1.0
  N3-  N1  1  0.68750000  0.35255000  0.87500000  1.0
  N3-  N1  1  0.02083333  0.85255000  0.37500000  1.0
  N3-  N1  1  0.35416667  0.85255000  0.37500000  1.0
  N3-  N1  1  0.68750000  0.85255000  0.37500000  1.0
  N3-  N1  1  0.02083333  0.85255000  0.87500000  1.0
  N3-  N1  1  0.35416667  0.85255000  0.87500000  1.0
  N3-  N1  1  0.68750000  0.85255000  0.87500000  1.0
  N3-  N1  1  0.18750000  0.35255000  0.37500000  1.0
  N3-  N1  1  0.52083333  0.35255000  0.37500000  1.0
  N3-  N1  1  0.85416667  0.35255000  0.37500000  1.0
  N3-  N1  1  0.18750000  0.35255000  0.87500000  1.0
  N3-  N1  1  0.52083333  0.35255000  0.87500000  1.0
  N3-  N1  1  0.85416667  0.35255000  0.87500000  1.0
  N3-  N1  1  0.18750000  0.85255000  0.37500000  1.0
  N3-  N1  1  0.52083333  0.85255000  0.37500000  1.0
  N3-  N1  1  0.85416667  0.85255000  0.37500000  1.0
  N3-  N1  1  0.18750000  0.85255000  0.87500000  1.0
  N3-  N1  1  0.52083333  0.85255000  0.87500000  1.0
  N3-  N1  1  0.85416667  0.85255000  0.87500000  1.0
  N3-  N1  1  0.10416667  0.02245000  0.37500000  1.0
  N3-  N1  1  0.43750000  0.02245000  0.37500000  1.0
  N3-  N1  1  0.77083333  0.02245000  0.37500000  1.0
  N3-  N1  1  0.10416667  0.02245000  0.87500000  1.0
  N3-  N1  1  0.43750000  0.02245000  0.87500000  1.0
  N3-  N1  1  0.77083333  0.02245000  0.87500000  1.0
  N3-  N1  1  0.10416667  0.52245000  0.37500000  1.0
  N3-  N1  1  0.43750000  0.52245000  0.37500000  1.0
  N3-  N1  1  0.77083333  0.52245000  0.37500000  1.0
  N3-  N1  1  0.10416667  0.52245000  0.87500000  1.0
  N3-  N1  1  0.43750000  0.52245000  0.87500000  1.0
  N3-  N1  1  0.77083333  0.52245000  0.87500000  1.0
  N3-  N1  1  0.27083333  0.02245000  0.37500000  1.0
  N3-  N1  1  0.60416667  0.02245000  0.37500000  1.0
  N3-  N1  1  0.93750000  0.02245000  0.37500000  1.0
  N3-  N1  1  0.27083333  0.02245000  0.87500000  1.0
  N3-  N1  1  0.60416667  0.02245000  0.87500000  1.0
  N3-  N1  1  0.93750000  0.02245000  0.87500000  1.0
  N3-  N1  1  0.27083333  0.52245000  0.37500000  1.0
  N3-  N1  1  0.60416667  0.52245000  0.37500000  1.0
  N3-  N1  1  0.93750000  0.52245000  0.37500000  1.0
  N3-  N1  1  0.27083333  0.52245000  0.87500000  1.0
  N3-  N1  1  0.60416667  0.52245000  0.87500000  1.0
  N3-  N1  1  0.93750000  0.52245000  0.87500000  1.0
  N3-  N1  1  0.04915000  0.18750000  0.12500000  1.0
  N3-  N1  1  0.38248333  0.18750000  0.12500000  1.0
  N3-  N1  1  0.71581667  0.18750000  0.12500000  1.0
  N3-  N1  1  0.04915000  0.18750000  0.62500000  1.0
  N3-  N1  1  0.38248333  0.18750000  0.62500000  1.0
  N3-  N1  1  0.71581667  0.18750000  0.62500000  1.0
  N3-  N1  1  0.04915000  0.68750000  0.12500000  1.0
  N3-  N1  1  0.38248333  0.68750000  0.12500000  1.0
  N3-  N1  1  0.71581667  0.68750000  0.12500000  1.0
  N3-  N1  1  0.04915000  0.68750000  0.62500000  1.0
  N3-  N1  1  0.38248333  0.68750000  0.62500000  1.0
  N3-  N1  1  0.71581667  0.68750000  0.62500000  1.0
  N3-  N1  1  0.21581667  0.18750000  0.12500000  1.0
  N3-  N1  1  0.54915000  0.18750000  0.12500000  1.0
  N3-  N1  1  0.88248333  0.18750000  0.12500000  1.0
  N3-  N1  1  0.21581667  0.18750000  0.62500000  1.0
  N3-  N1  1  0.54915000  0.18750000  0.62500000  1.0
  N3-  N1  1  0.88248333  0.18750000  0.62500000  1.0
  N3-  N1  1  0.21581667  0.68750000  0.12500000  1.0
  N3-  N1  1  0.54915000  0.68750000  0.12500000  1.0
  N3-  N1  1  0.88248333  0.68750000  0.12500000  1.0
  N3-  N1  1  0.21581667  0.68750000  0.62500000  1.0
  N3-  N1  1  0.54915000  0.68750000  0.62500000  1.0
  N3-  N1  1  0.88248333  0.68750000  0.62500000  1.0
  N3-  N1  1  0.15918333  0.43750000  0.12500000  1.0
  N3-  N1  1  0.49251667  0.43750000  0.12500000  1.0
  N3-  N1  1  0.82585000  0.43750000  0.12500000  1.0
  N3-  N1  1  0.15918333  0.43750000  0.62500000  1.0
  N3-  N1  1  0.49251667  0.43750000  0.62500000  1.0
  N3-  N1  1  0.82585000  0.43750000  0.62500000  1.0
  N3-  N1  1  0.15918333  0.93750000  0.12500000  1.0
  N3-  N1  1  0.49251667  0.93750000  0.12500000  1.0
  N3-  N1  1  0.82585000  0.93750000  0.12500000  1.0
  N3-  N1  1  0.15918333  0.93750000  0.62500000  1.0
  N3-  N1  1  0.49251667  0.93750000  0.62500000  1.0
  N3-  N1  1  0.82585000  0.93750000  0.62500000  1.0
  N3-  N1  1  0.32585000  0.43750000  0.12500000  1.0
  N3-  N1  1  0.65918333  0.43750000  0.12500000  1.0
  N3-  N1  1  0.99251667  0.43750000  0.12500000  1.0
  N3-  N1  1  0.32585000  0.43750000  0.62500000  1.0
  N3-  N1  1  0.65918333  0.43750000  0.62500000  1.0
  N3-  N1  1  0.99251667  0.43750000  0.62500000  1.0
  N3-  N1  1  0.32585000  0.93750000  0.12500000  1.0
  N3-  N1  1  0.65918333  0.93750000  0.12500000  1.0
  N3-  N1  1  0.99251667  0.93750000  0.12500000  1.0
  N3-  N1  1  0.32585000  0.93750000  0.62500000  1.0
  N3-  N1  1  0.65918333  0.93750000  0.62500000  1.0
  N3-  N1  1  0.99251667  0.93750000  0.62500000  1.0
