# generated using pymatgen
data_Li2V2(PO4)3
_symmetry_space_group_name_H-M   'P 1'
_cell_length_a   16.91356000
_cell_length_b   11.89577000
_cell_length_c   8.62076000
_cell_angle_alpha   90.00000000
_cell_angle_beta   90.00000000
_cell_angle_gamma   89.76340000
_symmetry_Int_Tables_number   1
_chemical_formula_structural   Li2V2(PO4)3
_chemical_formula_sum   'Li16 V16 P24 O96'
_cell_volume   1734.48056858
_cell_formula_units_Z   8
loop_
 _symmetry_equiv_pos_site_id
 _symmetry_equiv_pos_as_xyz
  1  'x, y, z'
loop_
 _atom_type_symbol
 _atom_type_oxidation_number
  Li+  1.0
  V3+  3.0
  V4+  4.0
  P5+  5.0
  O2-  -2.0
loop_
 _atom_site_type_symbol
 _atom_site_label
 _atom_site_symmetry_multiplicity
 _atom_site_fract_x
 _atom_site_fract_y
 _atom_site_fract_z
 _atom_site_occupancy
  Li+  Li0  1  0.14535000  0.67950000  0.45850000  1.0
  Li+  Li1  1  0.64535000  0.67950000  0.45850000  1.0
  Li+  Li2  1  0.39402421  0.18147130  0.53798588  1.0
  Li+  Li3  1  0.89535000  0.17950000  0.54150000  1.0
  Li+  Li4  1  0.35465000  0.32050000  0.04150000  1.0
  Li+  Li5  1  0.85465000  0.32050000  0.04150000  1.0
  Li+  Li6  1  0.10465000  0.82050000  0.95850000  1.0
  Li+  Li7  1  0.60465000  0.82050000  0.95850000  1.0
  Li+  Li8  1  0.35825000  0.67910000  0.97040000  1.0
  Li+  Li9  1  0.86049545  0.68158444  0.96799475  1.0
  Li+  Li10  1  0.10994232  0.18020403  0.02946752  1.0
  Li+  Li11  1  0.60825000  0.17910000  0.02960000  1.0
  Li+  Li12  1  0.14175000  0.32090000  0.52960000  1.0
  Li+  Li13  1  0.64175000  0.32090000  0.52960000  1.0
  Li+  Li14  1  0.39175000  0.82090000  0.47040000  1.0
  Li+  Li15  1  0.89175000  0.82090000  0.47040000  1.0
  V3+  V16  1  0.37386000  0.88639000  0.77886000  1.0
  V3+  V17  1  0.87526687  0.88156107  0.77762247  1.0
  V3+  V18  1  0.12386000  0.38639000  0.22114000  1.0
  V3+  V19  1  0.62386000  0.38639000  0.22114000  1.0
  V3+  V20  1  0.12614000  0.11361000  0.72114000  1.0
  V3+  V21  1  0.62614000  0.11361000  0.72114000  1.0
  V3+  V22  1  0.37614000  0.61361000  0.27886000  1.0
  V3+  V23  1  0.87847257  0.61295008  0.28183151  1.0
  V4+  V24  1  0.12227205  0.61539053  0.79685903  1.0
  V4+  V25  1  0.62479376  0.61684334  0.79788592  1.0
  V4+  V26  1  0.37361000  0.11713000  0.20218000  1.0
  V4+  V27  1  0.87361000  0.11713000  0.20218000  1.0
  V4+  V28  1  0.37639000  0.38287000  0.70218000  1.0
  V4+  V29  1  0.87388740  0.38420195  0.70065254  1.0
  V4+  V30  1  0.12624760  0.88400904  0.29717321  1.0
  V4+  V31  1  0.62639000  0.88287000  0.29782000  1.0
  P5+  P32  1  0.19880000  0.64860000  0.14360000  1.0
  P5+  P33  1  0.69880000  0.64860000  0.14360000  1.0
  P5+  P34  1  0.44498667  0.15120461  0.85533438  1.0
  P5+  P35  1  0.94880000  0.14860000  0.85640000  1.0
  P5+  P36  1  0.30120000  0.35140000  0.35640000  1.0
  P5+  P37  1  0.80228130  0.35084235  0.35771361  1.0
  P5+  P38  1  0.05120000  0.85140000  0.64360000  1.0
  P5+  P39  1  0.55120000  0.85140000  0.64360000  1.0
  P5+  P40  1  0.44945000  0.85560000  0.14480000  1.0
  P5+  P41  1  0.94946795  0.85477948  0.14252144  1.0
  P5+  P42  1  0.19945000  0.35560000  0.85520000  1.0
  P5+  P43  1  0.69945000  0.35560000  0.85520000  1.0
  P5+  P44  1  0.05055000  0.14440000  0.35520000  1.0
  P5+  P45  1  0.55055000  0.14440000  0.35520000  1.0
  P5+  P46  1  0.30055000  0.64440000  0.64480000  1.0
  P5+  P47  1  0.80055000  0.64440000  0.64480000  1.0
  P5+  P48  1  0.23055000  0.99780000  0.00070000  1.0
  P5+  P49  1  0.73055000  0.99780000  0.00070000  1.0
  P5+  P50  1  0.48055000  0.49780000  0.99930000  1.0
  P5+  P51  1  0.98055000  0.49780000  0.99930000  1.0
  P5+  P52  1  0.26945000  0.00220000  0.49930000  1.0
  P5+  P53  1  0.77112585  0.00121679  0.49760479  1.0
  P5+  P54  1  0.01759748  0.50130699  0.50265879  1.0
  P5+  P55  1  0.52325558  0.49911580  0.49825055  1.0
  O2-  O56  1  0.28625000  0.64850000  0.13480000  1.0
  O2-  O57  1  0.78625000  0.64850000  0.13480000  1.0
  O2-  O58  1  0.03533008  0.14765486  0.86862787  1.0
  O2-  O59  1  0.53625000  0.14850000  0.86520000  1.0
  O2-  O60  1  0.21516922  0.34388442  0.36115567  1.0
  O2-  O61  1  0.70831125  0.34975592  0.36276086  1.0
  O2-  O62  1  0.46375000  0.85150000  0.63480000  1.0
  O2-  O63  1  0.96620292  0.85054430  0.63339223  1.0
  O2-  O64  1  0.16945000  0.73730000  0.26450000  1.0
  O2-  O65  1  0.67003450  0.73938598  0.26368283  1.0
  O2-  O66  1  0.41945000  0.23730000  0.73550000  1.0
  O2-  O67  1  0.91865427  0.23517139  0.73232858  1.0
  O2-  O68  1  0.32770964  0.26197871  0.23709013  1.0
  O2-  O69  1  0.83055000  0.26270000  0.23550000  1.0
  O2-  O70  1  0.08055000  0.76270000  0.76450000  1.0
  O2-  O71  1  0.58055000  0.76270000  0.76450000  1.0
  O2-  O72  1  0.16035377  0.53467775  0.19949577  1.0
  O2-  O73  1  0.66659146  0.53228904  0.19934437  1.0
  O2-  O74  1  0.41525000  0.03640000  0.79920000  1.0
  O2-  O75  1  0.91525000  0.03640000  0.79920000  1.0
  O2-  O76  1  0.33475000  0.46360000  0.29920000  1.0
  O2-  O77  1  0.83475000  0.46360000  0.29920000  1.0
  O2-  O78  1  0.08786029  0.96600759  0.70341069  1.0
  O2-  O79  1  0.58475000  0.96360000  0.70080000  1.0
  O2-  O80  1  0.16270000  0.68020000  0.98280000  1.0
  O2-  O81  1  0.66270000  0.68020000  0.98280000  1.0
  O2-  O82  1  0.41270000  0.18020000  0.01720000  1.0
  O2-  O83  1  0.91270000  0.18020000  0.01720000  1.0
  O2-  O84  1  0.33305006  0.32048554  0.51296710  1.0
  O2-  O85  1  0.83730000  0.31980000  0.51720000  1.0
  O2-  O86  1  0.08730000  0.81980000  0.48280000  1.0
  O2-  O87  1  0.58414547  0.82244480  0.48660031  1.0
  O2-  O88  1  0.03880000  0.84060000  0.15920000  1.0
  O2-  O89  1  0.53880000  0.84060000  0.15920000  1.0
  O2-  O90  1  0.28880000  0.34060000  0.84080000  1.0
  O2-  O91  1  0.78880000  0.34060000  0.84080000  1.0
  O2-  O92  1  0.46120000  0.15940000  0.34080000  1.0
  O2-  O93  1  0.96120000  0.15940000  0.34080000  1.0
  O2-  O94  1  0.21120000  0.65940000  0.65920000  1.0
  O2-  O95  1  0.71120000  0.65940000  0.65920000  1.0
  O2-  O96  1  0.40805000  0.77890000  0.25940000  1.0
  O2-  O97  1  0.90805000  0.77890000  0.25940000  1.0
  O2-  O98  1  0.15805000  0.27890000  0.74060000  1.0
  O2-  O99  1  0.65790415  0.27608386  0.74121422  1.0
  O2-  O100  1  0.09195000  0.22110000  0.24060000  1.0
  O2-  O101  1  0.59259709  0.22133721  0.24154165  1.0
  O2-  O102  1  0.34195000  0.72110000  0.75940000  1.0
  O2-  O103  1  0.84195000  0.72110000  0.75940000  1.0
  O2-  O104  1  0.42775000  0.97850000  0.17640000  1.0
  O2-  O105  1  0.92775000  0.97850000  0.17640000  1.0
  O2-  O106  1  0.17775000  0.47850000  0.82360000  1.0
  O2-  O107  1  0.67615579  0.47947115  0.82797318  1.0
  O2-  O108  1  0.07225000  0.02150000  0.32360000  1.0
  O2-  O109  1  0.57225000  0.02150000  0.32360000  1.0
  O2-  O110  1  0.32225000  0.52150000  0.67640000  1.0
  O2-  O111  1  0.82495626  0.51727095  0.67414411  1.0
  O2-  O112  1  0.42590000  0.82470000  0.97490000  1.0
  O2-  O113  1  0.92590000  0.82470000  0.97490000  1.0
  O2-  O114  1  0.17590000  0.32470000  0.02510000  1.0
  O2-  O115  1  0.67590000  0.32470000  0.02510000  1.0
  O2-  O116  1  0.07410000  0.17530000  0.52510000  1.0
  O2-  O117  1  0.57410000  0.17530000  0.52510000  1.0
  O2-  O118  1  0.32410000  0.67530000  0.47490000  1.0
  O2-  O119  1  0.82410000  0.67530000  0.47490000  1.0
  O2-  O120  1  0.28260000  0.06120000  0.12600000  1.0
  O2-  O121  1  0.78260000  0.06120000  0.12600000  1.0
  O2-  O122  1  0.02965303  0.56531176  0.87165730  1.0
  O2-  O123  1  0.53260000  0.56120000  0.87400000  1.0
  O2-  O124  1  0.21779326  0.93703936  0.37279703  1.0
  O2-  O125  1  0.71740000  0.93880000  0.37400000  1.0
  O2-  O126  1  0.46740000  0.43880000  0.62600000  1.0
  O2-  O127  1  0.96740000  0.43880000  0.62600000  1.0
  O2-  O128  1  0.27980000  0.91830000  0.90230000  1.0
  O2-  O129  1  0.77980000  0.91830000  0.90230000  1.0
  O2-  O130  1  0.02980000  0.41830000  0.09770000  1.0
  O2-  O131  1  0.52980000  0.41830000  0.09770000  1.0
  O2-  O132  1  0.22180163  0.08244114  0.59874899  1.0
  O2-  O133  1  0.72367768  0.08616206  0.59708241  1.0
  O2-  O134  1  0.46459939  0.58321997  0.40577593  1.0
  O2-  O135  1  0.97020000  0.58170000  0.40230000  1.0
  O2-  O136  1  0.16855000  0.92600000  0.08790000  1.0
  O2-  O137  1  0.66855000  0.92600000  0.08790000  1.0
  O2-  O138  1  0.41855000  0.42600000  0.91210000  1.0
  O2-  O139  1  0.91835560  0.42759484  0.91346502  1.0
  O2-  O140  1  0.33145000  0.07400000  0.41210000  1.0
  O2-  O141  1  0.83145000  0.07400000  0.41210000  1.0
  O2-  O142  1  0.08145000  0.57400000  0.58790000  1.0
  O2-  O143  1  0.58145000  0.57400000  0.58790000  1.0
  O2-  O144  1  0.18730000  0.08970000  0.91180000  1.0
  O2-  O145  1  0.68730000  0.08970000  0.91180000  1.0
  O2-  O146  1  0.43730000  0.58970000  0.08820000  1.0
  O2-  O147  1  0.93730000  0.58970000  0.08820000  1.0
  O2-  O148  1  0.31270000  0.91030000  0.58820000  1.0
  O2-  O149  1  0.81270000  0.91030000  0.58820000  1.0
  O2-  O150  1  0.06270000  0.41030000  0.41180000  1.0
  O2-  O151  1  0.56331374  0.40722237  0.41185775  1.0
