# generated using pymatgen
data_Li2V2(PO4)3
_symmetry_space_group_name_H-M   'P 1'
_cell_length_a   8.66714002
_cell_length_b   17.00455561
_cell_length_c   11.95976970
_cell_angle_alpha   89.76340000
_cell_angle_beta   90.00000000
_cell_angle_gamma   90.00000000
_symmetry_Int_Tables_number   1
_chemical_formula_structural   Li2V2(PO4)3
_chemical_formula_sum   'Li16 V16 P24 O96'
_cell_volume   1762.62616844
_cell_formula_units_Z   8
loop_
 _symmetry_equiv_pos_site_id
 _symmetry_equiv_pos_as_xyz
  1  'x, y, z'
loop_
 _atom_type_symbol
 _atom_type_oxidation_number
  Li+  1.0
  V3+  3.0
  V4+  4.0
  P5+  5.0
  O2-  -2.0
loop_
 _atom_site_type_symbol
 _atom_site_label
 _atom_site_symmetry_multiplicity
 _atom_site_fract_x
 _atom_site_fract_y
 _atom_site_fract_z
 _atom_site_occupancy
  Li+  Li0  1  0.70850000  0.52131667  0.32050000  1.0
  Li+  Li1  1  0.70850000  0.02131667  0.32050000  1.0
  Li+  Li2  1  0.79150000  0.27131667  0.82050000  1.0
  Li+  Li3  1  0.79150000  0.77131667  0.82050000  1.0
  Li+  Li4  1  0.29150000  0.31201667  0.67950000  1.0
  Li+  Li5  1  0.29150000  0.81201667  0.67950000  1.0
  Li+  Li6  1  0.20850000  0.56201667  0.17950000  1.0
  Li+  Li7  1  0.20850000  0.06201667  0.17950000  1.0
  Li+  Li8  1  0.22040000  0.30841667  0.32090000  1.0
  Li+  Li9  1  0.22040000  0.80841667  0.32090000  1.0
  Li+  Li10  1  0.27960000  0.55841667  0.82090000  1.0
  Li+  Li11  1  0.27960000  0.05841667  0.82090000  1.0
  Li+  Li12  1  0.77960000  0.52491667  0.67910000  1.0
  Li+  Li13  1  0.77960000  0.02491667  0.67910000  1.0
  Li+  Li14  1  0.72040000  0.27491667  0.17910000  1.0
  Li+  Li15  1  0.72040000  0.77491667  0.17910000  1.0
  V3+  V16  1  0.02886000  0.29280667  0.11361000  1.0
  V3+  V17  1  0.02886000  0.79280667  0.11361000  1.0
  V3+  V18  1  0.47114000  0.54280667  0.61361000  1.0
  V3+  V19  1  0.47114000  0.04280667  0.61361000  1.0
  V3+  V20  1  0.97114000  0.54052667  0.88639000  1.0
  V3+  V21  1  0.97114000  0.04052667  0.88639000  1.0
  V3+  V22  1  0.52886000  0.29052667  0.38639000  1.0
  V3+  V23  1  0.52886000  0.79052667  0.38639000  1.0
  V4+  V24  1  0.04782000  0.54305667  0.38287000  1.0
  V4+  V25  1  0.04782000  0.04305667  0.38287000  1.0
  V4+  V26  1  0.45218000  0.29305667  0.88287000  1.0
  V4+  V27  1  0.45218000  0.79305667  0.88287000  1.0
  V4+  V28  1  0.95218000  0.29027667  0.61713000  1.0
  V4+  V29  1  0.95218000  0.79027667  0.61713000  1.0
  V4+  V30  1  0.54782000  0.54027667  0.11713000  1.0
  V4+  V31  1  0.54782000  0.04027667  0.11713000  1.0
  P5+  P32  1  0.39360000  0.46786667  0.35140000  1.0
  P5+  P33  1  0.39360000  0.96786667  0.35140000  1.0
  P5+  P34  1  0.10640000  0.21786667  0.85140000  1.0
  P5+  P35  1  0.10640000  0.71786667  0.85140000  1.0
  P5+  P36  1  0.60640000  0.36546667  0.64860000  1.0
  P5+  P37  1  0.60640000  0.86546667  0.64860000  1.0
  P5+  P38  1  0.89360000  0.61546667  0.14860000  1.0
  P5+  P39  1  0.89360000  0.11546667  0.14860000  1.0
  P5+  P40  1  0.39480000  0.21721667  0.14440000  1.0
  P5+  P41  1  0.39480000  0.71721667  0.14440000  1.0
  P5+  P42  1  0.10520000  0.46721667  0.64440000  1.0
  P5+  P43  1  0.10520000  0.96721667  0.64440000  1.0
  P5+  P44  1  0.60520000  0.61611667  0.85560000  1.0
  P5+  P45  1  0.60520000  0.11611667  0.85560000  1.0
  P5+  P46  1  0.89480000  0.36611667  0.35560000  1.0
  P5+  P47  1  0.89480000  0.86611667  0.35560000  1.0
  P5+  P48  1  0.25070000  0.43611667  0.00220000  1.0
  P5+  P49  1  0.25070000  0.93611667  0.00220000  1.0
  P5+  P50  1  0.24930000  0.18611667  0.50220000  1.0
  P5+  P51  1  0.24930000  0.68611667  0.50220000  1.0
  P5+  P52  1  0.74930000  0.39721667  0.99780000  1.0
  P5+  P53  1  0.74930000  0.89721667  0.99780000  1.0
  P5+  P54  1  0.75070000  0.64721667  0.49780000  1.0
  P5+  P55  1  0.75070000  0.14721667  0.49780000  1.0
  O2-  O56  1  0.38480000  0.38041667  0.35150000  1.0
  O2-  O57  1  0.38480000  0.88041667  0.35150000  1.0
  O2-  O58  1  0.11520000  0.63041667  0.85150000  1.0
  O2-  O59  1  0.11520000  0.13041667  0.85150000  1.0
  O2-  O60  1  0.61520000  0.45291667  0.64850000  1.0
  O2-  O61  1  0.61520000  0.95291667  0.64850000  1.0
  O2-  O62  1  0.88480000  0.20291667  0.14850000  1.0
  O2-  O63  1  0.88480000  0.70291667  0.14850000  1.0
  O2-  O64  1  0.51450000  0.49721667  0.26270000  1.0
  O2-  O65  1  0.51450000  0.99721667  0.26270000  1.0
  O2-  O66  1  0.98550000  0.24721667  0.76270000  1.0
  O2-  O67  1  0.98550000  0.74721667  0.76270000  1.0
  O2-  O68  1  0.48550000  0.33611667  0.73730000  1.0
  O2-  O69  1  0.48550000  0.83611667  0.73730000  1.0
  O2-  O70  1  0.01450000  0.58611667  0.23730000  1.0
  O2-  O71  1  0.01450000  0.08611667  0.23730000  1.0
  O2-  O72  1  0.45080000  0.50141667  0.46360000  1.0
  O2-  O73  1  0.45080000  0.00141667  0.46360000  1.0
  O2-  O74  1  0.04920000  0.25141667  0.96360000  1.0
  O2-  O75  1  0.04920000  0.75141667  0.96360000  1.0
  O2-  O76  1  0.54920000  0.33191667  0.53640000  1.0
  O2-  O77  1  0.54920000  0.83191667  0.53640000  1.0
  O2-  O78  1  0.95080000  0.58191667  0.03640000  1.0
  O2-  O79  1  0.95080000  0.08191667  0.03640000  1.0
  O2-  O80  1  0.23280000  0.50396667  0.31980000  1.0
  O2-  O81  1  0.23280000  0.00396667  0.31980000  1.0
  O2-  O82  1  0.26720000  0.25396667  0.81980000  1.0
  O2-  O83  1  0.26720000  0.75396667  0.81980000  1.0
  O2-  O84  1  0.76720000  0.32936667  0.68020000  1.0
  O2-  O85  1  0.76720000  0.82936667  0.68020000  1.0
  O2-  O86  1  0.73280000  0.57936667  0.18020000  1.0
  O2-  O87  1  0.73280000  0.07936667  0.18020000  1.0
  O2-  O88  1  0.40920000  0.62786667  0.15940000  1.0
  O2-  O89  1  0.40920000  0.12786667  0.15940000  1.0
  O2-  O90  1  0.09080000  0.37786667  0.65940000  1.0
  O2-  O91  1  0.09080000  0.87786667  0.65940000  1.0
  O2-  O92  1  0.59080000  0.20546667  0.84060000  1.0
  O2-  O93  1  0.59080000  0.70546667  0.84060000  1.0
  O2-  O94  1  0.90920000  0.45546667  0.34060000  1.0
  O2-  O95  1  0.90920000  0.95546667  0.34060000  1.0
  O2-  O96  1  0.50940000  0.25861667  0.22110000  1.0
  O2-  O97  1  0.50940000  0.75861667  0.22110000  1.0
  O2-  O98  1  0.99060000  0.50861667  0.72110000  1.0
  O2-  O99  1  0.99060000  0.00861667  0.72110000  1.0
  O2-  O100  1  0.49060000  0.57471667  0.77890000  1.0
  O2-  O101  1  0.49060000  0.07471667  0.77890000  1.0
  O2-  O102  1  0.00940000  0.32471667  0.27890000  1.0
  O2-  O103  1  0.00940000  0.82471667  0.27890000  1.0
  O2-  O104  1  0.42640000  0.23891667  0.02150000  1.0
  O2-  O105  1  0.42640000  0.73891667  0.02150000  1.0
  O2-  O106  1  0.07360000  0.48891667  0.52150000  1.0
  O2-  O107  1  0.07360000  0.98891667  0.52150000  1.0
  O2-  O108  1  0.57360000  0.59441667  0.97850000  1.0
  O2-  O109  1  0.57360000  0.09441667  0.97850000  1.0
  O2-  O110  1  0.92640000  0.34441667  0.47850000  1.0
  O2-  O111  1  0.92640000  0.84441667  0.47850000  1.0
  O2-  O112  1  0.22490000  0.24076667  0.17530000  1.0
  O2-  O113  1  0.22490000  0.74076667  0.17530000  1.0
  O2-  O114  1  0.27510000  0.49076667  0.67530000  1.0
  O2-  O115  1  0.27510000  0.99076667  0.67530000  1.0
  O2-  O116  1  0.77510000  0.59256667  0.82470000  1.0
  O2-  O117  1  0.77510000  0.09256667  0.82470000  1.0
  O2-  O118  1  0.72490000  0.34256667  0.32470000  1.0
  O2-  O119  1  0.72490000  0.84256667  0.32470000  1.0
  O2-  O120  1  0.37600000  0.38406667  0.93880000  1.0
  O2-  O121  1  0.37600000  0.88406667  0.93880000  1.0
  O2-  O122  1  0.12400000  0.63406667  0.43880000  1.0
  O2-  O123  1  0.12400000  0.13406667  0.43880000  1.0
  O2-  O124  1  0.62400000  0.44926667  0.06120000  1.0
  O2-  O125  1  0.62400000  0.94926667  0.06120000  1.0
  O2-  O126  1  0.87600000  0.19926667  0.56120000  1.0
  O2-  O127  1  0.87600000  0.69926667  0.56120000  1.0
  O2-  O128  1  0.15230000  0.38686667  0.08170000  1.0
  O2-  O129  1  0.15230000  0.88686667  0.08170000  1.0
  O2-  O130  1  0.34770000  0.63686667  0.58170000  1.0
  O2-  O131  1  0.34770000  0.13686667  0.58170000  1.0
  O2-  O132  1  0.84770000  0.44646667  0.91830000  1.0
  O2-  O133  1  0.84770000  0.94646667  0.91830000  1.0
  O2-  O134  1  0.65230000  0.19646667  0.41830000  1.0
  O2-  O135  1  0.65230000  0.69646667  0.41830000  1.0
  O2-  O136  1  0.33790000  0.49811667  0.07400000  1.0
  O2-  O137  1  0.33790000  0.99811667  0.07400000  1.0
  O2-  O138  1  0.16210000  0.24811667  0.57400000  1.0
  O2-  O139  1  0.16210000  0.74811667  0.57400000  1.0
  O2-  O140  1  0.66210000  0.33521667  0.92600000  1.0
  O2-  O141  1  0.66210000  0.83521667  0.92600000  1.0
  O2-  O142  1  0.83790000  0.58521667  0.42600000  1.0
  O2-  O143  1  0.83790000  0.08521667  0.42600000  1.0
  O2-  O144  1  0.16180000  0.47936667  0.91030000  1.0
  O2-  O145  1  0.16180000  0.97936667  0.91030000  1.0
  O2-  O146  1  0.33820000  0.22936667  0.41030000  1.0
  O2-  O147  1  0.33820000  0.72936667  0.41030000  1.0
  O2-  O148  1  0.83820000  0.35396667  0.08970000  1.0
  O2-  O149  1  0.83820000  0.85396667  0.08970000  1.0
  O2-  O150  1  0.66180000  0.60396667  0.58970000  1.0
  O2-  O151  1  0.66180000  0.10396667  0.58970000  1.0
