# generated using pymatgen
data_Li2V2(PO4)3
_symmetry_space_group_name_H-M   'P 1'
_cell_length_a   16.91356000
_cell_length_b   8.62076000
_cell_length_c   11.89577000
_cell_angle_alpha   90.00000000
_cell_angle_beta   90.23660000
_cell_angle_gamma   90.00000000
_symmetry_Int_Tables_number   1
_chemical_formula_structural   Li2V2(PO4)3
_chemical_formula_sum   'Li16 V16 P24 O96'
_cell_volume   1734.48056858
_cell_formula_units_Z   8
loop_
 _symmetry_equiv_pos_site_id
 _symmetry_equiv_pos_as_xyz
  1  'x, y, z'
loop_
 _atom_type_symbol
 _atom_type_oxidation_number
  Li+  1.0
  V3+  3.0
  V4+  4.0
  P5+  5.0
  O2-  -2.0
loop_
 _atom_site_type_symbol
 _atom_site_label
 _atom_site_symmetry_multiplicity
 _atom_site_fract_x
 _atom_site_fract_y
 _atom_site_fract_z
 _atom_site_occupancy
  Li+  Li1  1  0.14535000  0.29150000  0.32050000  1.0
  Li+  Li1  1  0.64535000  0.29150000  0.32050000  1.0
  Li+  Li1  1  0.39535000  0.20850000  0.82050000  1.0
  Li+  Li1  1  0.89535000  0.20850000  0.82050000  1.0
  Li+  Li1  1  0.35465000  0.70850000  0.67950000  1.0
  Li+  Li1  1  0.85465000  0.70850000  0.67950000  1.0
  Li+  Li1  1  0.10465000  0.79150000  0.17950000  1.0
  Li+  Li1  1  0.60465000  0.79150000  0.17950000  1.0
  Li+  Li2  1  0.35825000  0.77960000  0.32090000  1.0
  Li+  Li2  1  0.85825000  0.77960000  0.32090000  1.0
  Li+  Li2  1  0.10825000  0.72040000  0.82090000  1.0
  Li+  Li2  1  0.60825000  0.72040000  0.82090000  1.0
  Li+  Li2  1  0.14175000  0.22040000  0.67910000  1.0
  Li+  Li2  1  0.64175000  0.22040000  0.67910000  1.0
  Li+  Li2  1  0.39175000  0.27960000  0.17910000  1.0
  Li+  Li2  1  0.89175000  0.27960000  0.17910000  1.0
  V3+  V2  1  0.37386000  0.97114000  0.11361000  1.0
  V3+  V2  1  0.87386000  0.97114000  0.11361000  1.0
  V3+  V2  1  0.12386000  0.52886000  0.61361000  1.0
  V3+  V2  1  0.62386000  0.52886000  0.61361000  1.0
  V3+  V2  1  0.12614000  0.02886000  0.88639000  1.0
  V3+  V2  1  0.62614000  0.02886000  0.88639000  1.0
  V3+  V2  1  0.37614000  0.47114000  0.38639000  1.0
  V3+  V2  1  0.87614000  0.47114000  0.38639000  1.0
  V4+  V1  1  0.12361000  0.95218000  0.38287000  1.0
  V4+  V1  1  0.62361000  0.95218000  0.38287000  1.0
  V4+  V1  1  0.37361000  0.54782000  0.88287000  1.0
  V4+  V1  1  0.87361000  0.54782000  0.88287000  1.0
  V4+  V1  1  0.37639000  0.04782000  0.61713000  1.0
  V4+  V1  1  0.87639000  0.04782000  0.61713000  1.0
  V4+  V1  1  0.12639000  0.45218000  0.11713000  1.0
  V4+  V1  1  0.62639000  0.45218000  0.11713000  1.0
  P5+  P1  1  0.19880000  0.60640000  0.35140000  1.0
  P5+  P1  1  0.69880000  0.60640000  0.35140000  1.0
  P5+  P1  1  0.44880000  0.89360000  0.85140000  1.0
  P5+  P1  1  0.94880000  0.89360000  0.85140000  1.0
  P5+  P1  1  0.30120000  0.39360000  0.64860000  1.0
  P5+  P1  1  0.80120000  0.39360000  0.64860000  1.0
  P5+  P1  1  0.05120000  0.10640000  0.14860000  1.0
  P5+  P1  1  0.55120000  0.10640000  0.14860000  1.0
  P5+  P2  1  0.44945000  0.60520000  0.14440000  1.0
  P5+  P2  1  0.94945000  0.60520000  0.14440000  1.0
  P5+  P2  1  0.19945000  0.89480000  0.64440000  1.0
  P5+  P2  1  0.69945000  0.89480000  0.64440000  1.0
  P5+  P2  1  0.05055000  0.39480000  0.85560000  1.0
  P5+  P2  1  0.55055000  0.39480000  0.85560000  1.0
  P5+  P2  1  0.30055000  0.10520000  0.35560000  1.0
  P5+  P2  1  0.80055000  0.10520000  0.35560000  1.0
  P5+  P3  1  0.23055000  0.74930000  0.00220000  1.0
  P5+  P3  1  0.73055000  0.74930000  0.00220000  1.0
  P5+  P3  1  0.48055000  0.75070000  0.50220000  1.0
  P5+  P3  1  0.98055000  0.75070000  0.50220000  1.0
  P5+  P3  1  0.26945000  0.25070000  0.99780000  1.0
  P5+  P3  1  0.76945000  0.25070000  0.99780000  1.0
  P5+  P3  1  0.01945000  0.24930000  0.49780000  1.0
  P5+  P3  1  0.51945000  0.24930000  0.49780000  1.0
  O2-  O1  1  0.28625000  0.61520000  0.35150000  1.0
  O2-  O1  1  0.78625000  0.61520000  0.35150000  1.0
  O2-  O1  1  0.03625000  0.88480000  0.85150000  1.0
  O2-  O1  1  0.53625000  0.88480000  0.85150000  1.0
  O2-  O1  1  0.21375000  0.38480000  0.64850000  1.0
  O2-  O1  1  0.71375000  0.38480000  0.64850000  1.0
  O2-  O1  1  0.46375000  0.11520000  0.14850000  1.0
  O2-  O1  1  0.96375000  0.11520000  0.14850000  1.0
  O2-  O2  1  0.16945000  0.48550000  0.26270000  1.0
  O2-  O2  1  0.66945000  0.48550000  0.26270000  1.0
  O2-  O2  1  0.41945000  0.01450000  0.76270000  1.0
  O2-  O2  1  0.91945000  0.01450000  0.76270000  1.0
  O2-  O2  1  0.33055000  0.51450000  0.73730000  1.0
  O2-  O2  1  0.83055000  0.51450000  0.73730000  1.0
  O2-  O2  1  0.08055000  0.98550000  0.23730000  1.0
  O2-  O2  1  0.58055000  0.98550000  0.23730000  1.0
  O2-  O3  1  0.16525000  0.54920000  0.46360000  1.0
  O2-  O3  1  0.66525000  0.54920000  0.46360000  1.0
  O2-  O3  1  0.41525000  0.95080000  0.96360000  1.0
  O2-  O3  1  0.91525000  0.95080000  0.96360000  1.0
  O2-  O3  1  0.33475000  0.45080000  0.53640000  1.0
  O2-  O3  1  0.83475000  0.45080000  0.53640000  1.0
  O2-  O3  1  0.08475000  0.04920000  0.03640000  1.0
  O2-  O3  1  0.58475000  0.04920000  0.03640000  1.0
  O2-  O4  1  0.16270000  0.76720000  0.31980000  1.0
  O2-  O4  1  0.66270000  0.76720000  0.31980000  1.0
  O2-  O4  1  0.41270000  0.73280000  0.81980000  1.0
  O2-  O4  1  0.91270000  0.73280000  0.81980000  1.0
  O2-  O4  1  0.33730000  0.23280000  0.68020000  1.0
  O2-  O4  1  0.83730000  0.23280000  0.68020000  1.0
  O2-  O4  1  0.08730000  0.26720000  0.18020000  1.0
  O2-  O4  1  0.58730000  0.26720000  0.18020000  1.0
  O2-  O5  1  0.03880000  0.59080000  0.15940000  1.0
  O2-  O5  1  0.53880000  0.59080000  0.15940000  1.0
  O2-  O5  1  0.28880000  0.90920000  0.65940000  1.0
  O2-  O5  1  0.78880000  0.90920000  0.65940000  1.0
  O2-  O5  1  0.46120000  0.40920000  0.84060000  1.0
  O2-  O5  1  0.96120000  0.40920000  0.84060000  1.0
  O2-  O5  1  0.21120000  0.09080000  0.34060000  1.0
  O2-  O5  1  0.71120000  0.09080000  0.34060000  1.0
  O2-  O6  1  0.40805000  0.49060000  0.22110000  1.0
  O2-  O6  1  0.90805000  0.49060000  0.22110000  1.0
  O2-  O6  1  0.15805000  0.00940000  0.72110000  1.0
  O2-  O6  1  0.65805000  0.00940000  0.72110000  1.0
  O2-  O6  1  0.09195000  0.50940000  0.77890000  1.0
  O2-  O6  1  0.59195000  0.50940000  0.77890000  1.0
  O2-  O6  1  0.34195000  0.99060000  0.27890000  1.0
  O2-  O6  1  0.84195000  0.99060000  0.27890000  1.0
  O2-  O7  1  0.42775000  0.57360000  0.02150000  1.0
  O2-  O7  1  0.92775000  0.57360000  0.02150000  1.0
  O2-  O7  1  0.17775000  0.92640000  0.52150000  1.0
  O2-  O7  1  0.67775000  0.92640000  0.52150000  1.0
  O2-  O7  1  0.07225000  0.42640000  0.97850000  1.0
  O2-  O7  1  0.57225000  0.42640000  0.97850000  1.0
  O2-  O7  1  0.32225000  0.07360000  0.47850000  1.0
  O2-  O7  1  0.82225000  0.07360000  0.47850000  1.0
  O2-  O8  1  0.42590000  0.77510000  0.17530000  1.0
  O2-  O8  1  0.92590000  0.77510000  0.17530000  1.0
  O2-  O8  1  0.17590000  0.72490000  0.67530000  1.0
  O2-  O8  1  0.67590000  0.72490000  0.67530000  1.0
  O2-  O8  1  0.07410000  0.22490000  0.82470000  1.0
  O2-  O8  1  0.57410000  0.22490000  0.82470000  1.0
  O2-  O8  1  0.32410000  0.27510000  0.32470000  1.0
  O2-  O8  1  0.82410000  0.27510000  0.32470000  1.0
  O2-  O9  1  0.28260000  0.62400000  0.93880000  1.0
  O2-  O9  1  0.78260000  0.62400000  0.93880000  1.0
  O2-  O9  1  0.03260000  0.87600000  0.43880000  1.0
  O2-  O9  1  0.53260000  0.87600000  0.43880000  1.0
  O2-  O9  1  0.21740000  0.37600000  0.06120000  1.0
  O2-  O9  1  0.71740000  0.37600000  0.06120000  1.0
  O2-  O9  1  0.46740000  0.12400000  0.56120000  1.0
  O2-  O9  1  0.96740000  0.12400000  0.56120000  1.0
  O2-  O10  1  0.27980000  0.84770000  0.08170000  1.0
  O2-  O10  1  0.77980000  0.84770000  0.08170000  1.0
  O2-  O10  1  0.02980000  0.65230000  0.58170000  1.0
  O2-  O10  1  0.52980000  0.65230000  0.58170000  1.0
  O2-  O10  1  0.22020000  0.15230000  0.91830000  1.0
  O2-  O10  1  0.72020000  0.15230000  0.91830000  1.0
  O2-  O10  1  0.47020000  0.34770000  0.41830000  1.0
  O2-  O10  1  0.97020000  0.34770000  0.41830000  1.0
  O2-  O11  1  0.16855000  0.66210000  0.07400000  1.0
  O2-  O11  1  0.66855000  0.66210000  0.07400000  1.0
  O2-  O11  1  0.41855000  0.83790000  0.57400000  1.0
  O2-  O11  1  0.91855000  0.83790000  0.57400000  1.0
  O2-  O11  1  0.33145000  0.33790000  0.92600000  1.0
  O2-  O11  1  0.83145000  0.33790000  0.92600000  1.0
  O2-  O11  1  0.08145000  0.16210000  0.42600000  1.0
  O2-  O11  1  0.58145000  0.16210000  0.42600000  1.0
  O2-  O12  1  0.18730000  0.83820000  0.91030000  1.0
  O2-  O12  1  0.68730000  0.83820000  0.91030000  1.0
  O2-  O12  1  0.43730000  0.66180000  0.41030000  1.0
  O2-  O12  1  0.93730000  0.66180000  0.41030000  1.0
  O2-  O12  1  0.31270000  0.16180000  0.08970000  1.0
  O2-  O12  1  0.81270000  0.16180000  0.08970000  1.0
  O2-  O12  1  0.06270000  0.33820000  0.58970000  1.0
  O2-  O12  1  0.56270000  0.33820000  0.58970000  1.0
