# generated using pymatgen
data_Li31GeSb4(S5I)5
_symmetry_space_group_name_H-M   'P 1'
_cell_length_a   36.81480746
_cell_length_b   14.72592298
_cell_length_c   7.36296149
_cell_angle_alpha   60.00000000
_cell_angle_beta   120.00000000
_cell_angle_gamma   120.00000000
_symmetry_Int_Tables_number   1
_chemical_formula_structural   Li31GeSb4(S5I)5
_chemical_formula_sum   'Li62 Ge2 Sb8 S50 I10'
_cell_volume   2822.55614422
_cell_formula_units_Z   2
loop_
 _symmetry_equiv_pos_site_id
 _symmetry_equiv_pos_as_xyz
  1  'x, y, z'
loop_
 _atom_type_symbol
 _atom_type_oxidation_number
  Li+  1.0
  Ge4+  4.0
  Sb5+  5.0
  S2-  -2.0
  I-  -1.0
loop_
 _atom_site_type_symbol
 _atom_site_label
 _atom_site_symmetry_multiplicity
 _atom_site_fract_x
 _atom_site_fract_y
 _atom_site_fract_z
 _atom_site_occupancy
  Li+  Li0  1  0.19560000  0.51100000  0.29660000  1.0
  Li+  Li1  1  0.19560000  0.01100000  0.29660000  1.0
  Li+  Li2  1  0.39560000  0.51100000  0.29660000  1.0
  Li+  Li3  1  0.59560000  0.51100000  0.29660000  1.0
  Li+  Li4  1  0.59560000  0.01100000  0.29660000  1.0
  Li+  Li5  1  0.79560000  0.51100000  0.29660000  1.0
  Li+  Li6  1  0.79560000  0.01100000  0.29660000  1.0
  Li+  Li7  1  0.99754280  0.50964320  0.29698811  1.0
  Li+  Li8  1  0.99560000  0.01100000  0.29660000  1.0
  Li+  Li9  1  0.11812000  0.77330000  0.77200000  1.0
  Li+  Li10  1  0.31812000  0.77330000  0.77200000  1.0
  Li+  Li11  1  0.31812000  0.27330000  0.77200000  1.0
  Li+  Li12  1  0.52206966  0.77398327  0.76915034  1.0
  Li+  Li13  1  0.51812000  0.27330000  0.77200000  1.0
  Li+  Li14  1  0.71812000  0.77330000  0.77200000  1.0
  Li+  Li15  1  0.39560000  0.51100000  0.15940000  1.0
  Li+  Li16  1  0.59560000  0.01100000  0.15940000  1.0
  Li+  Li17  1  0.79560000  0.01100000  0.15940000  1.0
  Li+  Li18  1  0.99560000  0.51100000  0.15940000  1.0
  Li+  Li19  1  0.99560000  0.01100000  0.15940000  1.0
  Li+  Li20  1  0.09068000  0.70470000  0.77200000  1.0
  Li+  Li21  1  0.29068000  0.20470000  0.77200000  1.0
  Li+  Li22  1  0.49068000  0.70470000  0.77200000  1.0
  Li+  Li23  1  0.69068000  0.20470000  0.77200000  1.0
  Li+  Li24  1  0.89073285  0.70750544  0.76845451  1.0
  Li+  Li25  1  0.89068000  0.20470000  0.77200000  1.0
  Li+  Li26  1  0.08893118  0.50923896  0.77112146  1.0
  Li+  Li27  1  0.29068000  0.01100000  0.77200000  1.0
  Li+  Li28  1  0.49069505  0.00903382  0.77298632  1.0
  Li+  Li29  1  0.69068000  0.01100000  0.77200000  1.0
  Li+  Li30  1  0.39560000  0.70470000  0.29660000  1.0
  Li+  Li31  1  0.39560000  0.20470000  0.29660000  1.0
  Li+  Li32  1  0.59560000  0.70470000  0.29660000  1.0
  Li+  Li33  1  0.79560000  0.70470000  0.29660000  1.0
  Li+  Li34  1  0.51812000  0.51100000  0.77200000  1.0
  Li+  Li35  1  0.71812000  0.51100000  0.77200000  1.0
  Li+  Li36  1  0.91812000  0.01100000  0.77200000  1.0
  Li+  Li37  1  0.19560000  0.77330000  0.15940000  1.0
  Li+  Li38  1  0.19560000  0.27330000  0.15940000  1.0
  Li+  Li39  1  0.99560000  0.77330000  0.15940000  1.0
  Li+  Li40  1  0.99560000  0.27330000  0.15940000  1.0
  Li+  Li41  1  0.19560000  0.77330000  0.77200000  1.0
  Li+  Li42  1  0.19560000  0.27330000  0.77200000  1.0
  Li+  Li43  1  0.39560000  0.77330000  0.77200000  1.0
  Li+  Li44  1  0.39890554  0.27460471  0.76988970  1.0
  Li+  Li45  1  0.79560000  0.77330000  0.77200000  1.0
  Li+  Li46  1  0.79943120  0.27419160  0.77195126  1.0
  Li+  Li47  1  0.99644939  0.77359063  0.77288862  1.0
  Li+  Li48  1  0.09068000  0.51100000  0.15940000  1.0
  Li+  Li49  1  0.29068000  0.01100000  0.15940000  1.0
  Li+  Li50  1  0.49068000  0.01100000  0.15940000  1.0
  Li+  Li51  1  0.69068000  0.51100000  0.15940000  1.0
  Li+  Li52  1  0.89068000  0.51100000  0.15940000  1.0
  Li+  Li53  1  0.88715423  0.01123001  0.16241121  1.0
  Li+  Li54  1  0.19485639  0.70449382  0.77142938  1.0
  Li+  Li55  1  0.39560000  0.70470000  0.77200000  1.0
  Li+  Li56  1  0.59560000  0.70470000  0.77200000  1.0
  Li+  Li57  1  0.99560000  0.20470000  0.77200000  1.0
  Li+  Li58  1  0.11729156  0.01243153  0.29912640  1.0
  Li+  Li59  1  0.31812000  0.01100000  0.29660000  1.0
  Li+  Li60  1  0.71812000  0.01100000  0.29660000  1.0
  Li+  Li61  1  0.91812000  0.01100000  0.29660000  1.0
  Ge4+  Ge62  1  0.50336701  0.75257601  0.25000334  1.0
  Ge4+  Ge63  1  0.89699670  0.25190065  0.25058693  1.0
  Sb5+  Sb64  1  0.10000000  0.75000000  0.25000000  1.0
  Sb5+  Sb65  1  0.10000000  0.25000000  0.25000000  1.0
  Sb5+  Sb66  1  0.30303815  0.75070937  0.25171068  1.0
  Sb5+  Sb67  1  0.30000000  0.25000000  0.25000000  1.0
  Sb5+  Sb68  1  0.50000000  0.25000000  0.25000000  1.0
  Sb5+  Sb69  1  0.70000000  0.75000000  0.25000000  1.0
  Sb5+  Sb70  1  0.69944495  0.25016007  0.24975927  1.0
  Sb5+  Sb71  1  0.90180026  0.75109274  0.25330013  1.0
  S2-  S72  1  0.17649400  0.81374500  0.37749000  1.0
  S2-  S73  1  0.17649400  0.31374500  0.37749000  1.0
  S2-  S74  1  0.37754634  0.81385589  0.37354811  1.0
  S2-  S75  1  0.37649400  0.31374500  0.37749000  1.0
  S2-  S76  1  0.57649400  0.81374500  0.37749000  1.0
  S2-  S77  1  0.57524672  0.31634678  0.37701082  1.0
  S2-  S78  1  0.77403724  0.81053252  0.37890411  1.0
  S2-  S79  1  0.77649400  0.31374500  0.37749000  1.0
  S2-  S80  1  0.97649400  0.81374500  0.37749000  1.0
  S2-  S81  1  0.97649400  0.31374500  0.37749000  1.0
  S2-  S82  1  0.07450200  0.81374500  0.37749000  1.0
  S2-  S83  1  0.07450200  0.31374500  0.37749000  1.0
  S2-  S84  1  0.27642934  0.81055583  0.37838978  1.0
  S2-  S85  1  0.27809323  0.31211880  0.37878283  1.0
  S2-  S86  1  0.47450200  0.81374500  0.37749000  1.0
  S2-  S87  1  0.47617186  0.31270795  0.37626806  1.0
  S2-  S88  1  0.67450200  0.81374500  0.37749000  1.0
  S2-  S89  1  0.67480275  0.31037887  0.37748095  1.0
  S2-  S90  1  0.87450200  0.81374500  0.37749000  1.0
  S2-  S91  1  0.87684587  0.31520041  0.37969405  1.0
  S2-  S92  1  0.07450200  0.55876500  0.37749000  1.0
  S2-  S93  1  0.07450200  0.05876500  0.37749000  1.0
  S2-  S94  1  0.27450200  0.55876500  0.37749000  1.0
  S2-  S95  1  0.27450200  0.05876500  0.37749000  1.0
  S2-  S96  1  0.47450200  0.55876500  0.37749000  1.0
  S2-  S97  1  0.47450200  0.05876500  0.37749000  1.0
  S2-  S98  1  0.67450200  0.55876500  0.37749000  1.0
  S2-  S99  1  0.67480197  0.06070782  0.37627522  1.0
  S2-  S100  1  0.87450200  0.55876500  0.37749000  1.0
  S2-  S101  1  0.87688952  0.05635208  0.38341963  1.0
  S2-  S102  1  0.07450200  0.81374500  0.86753000  1.0
  S2-  S103  1  0.07450200  0.31374500  0.86753000  1.0
  S2-  S104  1  0.27773192  0.81147145  0.86641170  1.0
  S2-  S105  1  0.27450200  0.31374500  0.86753000  1.0
  S2-  S106  1  0.47450200  0.81374500  0.86753000  1.0
  S2-  S107  1  0.47450200  0.31374500  0.86753000  1.0
  S2-  S108  1  0.67462496  0.81190488  0.86461423  1.0
  S2-  S109  1  0.67718375  0.31279937  0.87296789  1.0
  S2-  S110  1  0.87450200  0.81374500  0.86753000  1.0
  S2-  S111  1  0.87450200  0.31374500  0.86753000  1.0
  S2-  S112  1  0.15000000  0.62500000  0.00000000  1.0
  S2-  S113  1  0.15000000  0.12500000  0.00000000  1.0
  S2-  S114  1  0.34595387  0.62622880  0.99558661  1.0
  S2-  S115  1  0.35000000  0.12500000  0.00000000  1.0
  S2-  S116  1  0.55000000  0.62500000  0.00000000  1.0
  S2-  S117  1  0.55000000  0.12500000  0.00000000  1.0
  S2-  S118  1  0.75413378  0.62609650  0.99727030  1.0
  S2-  S119  1  0.75000000  0.12500000  0.00000000  1.0
  S2-  S120  1  0.95000000  0.62500000  0.00000000  1.0
  S2-  S121  1  0.94843298  0.12239277  0.99849563  1.0
  I-  I122  1  0.00000000  0.00000000  0.75000000  1.0
  I-  I123  1  0.00000000  0.50000000  0.75000000  1.0
  I-  I124  1  0.20000000  0.00000000  0.75000000  1.0
  I-  I125  1  0.20000000  0.50000000  0.75000000  1.0
  I-  I126  1  0.40000000  0.00000000  0.75000000  1.0
  I-  I127  1  0.40420431  0.49976116  0.74643972  1.0
  I-  I128  1  0.60000000  0.00000000  0.75000000  1.0
  I-  I129  1  0.60000000  0.50000000  0.75000000  1.0
  I-  I130  1  0.80000000  0.00000000  0.75000000  1.0
  I-  I131  1  0.80000000  0.50000000  0.75000000  1.0
