# generated using pymatgen
data_Li15VGe3O16
_symmetry_space_group_name_H-M   'P 1'
_cell_length_a   15.47130000
_cell_length_b   10.89600000
_cell_length_c   6.25160000
_cell_angle_alpha   90.00000000
_cell_angle_beta   90.00000000
_cell_angle_gamma   90.00000000
_symmetry_Int_Tables_number   1
_chemical_formula_structural   Li15VGe3O16
_chemical_formula_sum   'Li45 V3 Ge9 O48'
_cell_volume   1053.86525046
_cell_formula_units_Z   3
loop_
 _symmetry_equiv_pos_site_id
 _symmetry_equiv_pos_as_xyz
  1  'x, y, z'
loop_
 _atom_type_symbol
 _atom_type_oxidation_number
  Li+  1.0
  V5+  5.0
  Ge4+  4.0
  O2-  -2.0
loop_
 _atom_site_type_symbol
 _atom_site_label
 _atom_site_symmetry_multiplicity
 _atom_site_fract_x
 _atom_site_fract_y
 _atom_site_fract_z
 _atom_site_occupancy
  Li+  Li0  1  0.17166667  0.82700000  0.00000000  1.0
  Li+  Li1  1  0.50381917  0.82560372  0.99938893  1.0
  Li+  Li2  1  0.83840681  0.82597799  0.99499667  1.0
  Li+  Li3  1  0.16166667  0.17300000  0.50000000  1.0
  Li+  Li4  1  0.49566178  0.17354591  0.50487520  1.0
  Li+  Li5  1  0.82833333  0.17300000  0.50000000  1.0
  Li+  Li6  1  0.00959960  0.67182217  0.50042128  1.0
  Li+  Li7  1  0.34176020  0.66708882  0.49825883  1.0
  Li+  Li8  1  0.67166667  0.67300000  0.50000000  1.0
  Li+  Li9  1  0.20366667  0.03100000  0.26800000  1.0
  Li+  Li10  1  0.53700000  0.03100000  0.26800000  1.0
  Li+  Li11  1  0.87033333  0.03100000  0.26800000  1.0
  Li+  Li12  1  0.13033333  0.35700000  0.27700000  1.0
  Li+  Li13  1  0.46366667  0.35700000  0.27700000  1.0
  Li+  Li14  1  0.79700000  0.35700000  0.27700000  1.0
  Li+  Li15  1  0.20300000  0.64300000  0.22300000  1.0
  Li+  Li16  1  0.53633333  0.64300000  0.22300000  1.0
  Li+  Li17  1  0.86966667  0.64300000  0.22300000  1.0
  Li+  Li18  1  0.29700000  0.14300000  0.77700000  1.0
  Li+  Li19  1  0.63033333  0.14300000  0.77700000  1.0
  Li+  Li20  1  0.96187409  0.14131711  0.77774711  1.0
  Li+  Li21  1  0.04800000  0.57500000  0.00000000  1.0
  Li+  Li22  1  0.38133333  0.57500000  0.00000000  1.0
  Li+  Li23  1  0.71466667  0.57500000  0.00000000  1.0
  Li+  Li24  1  0.28533333  0.42500000  0.50000000  1.0
  Li+  Li25  1  0.61866667  0.42500000  0.50000000  1.0
  Li+  Li26  1  0.95200000  0.42500000  0.50000000  1.0
  Li+  Li27  1  0.21466667  0.92500000  0.50000000  1.0
  Li+  Li28  1  0.54800000  0.92500000  0.50000000  1.0
  Li+  Li29  1  0.88133333  0.92500000  0.50000000  1.0
  Li+  Li30  1  0.22900000  0.16900000  0.26100000  1.0
  Li+  Li31  1  0.56233333  0.16900000  0.26100000  1.0
  Li+  Li32  1  0.89566667  0.16900000  0.26100000  1.0
  Li+  Li33  1  0.06233333  0.33100000  0.23900000  1.0
  Li+  Li34  1  0.39566667  0.33100000  0.23900000  1.0
  Li+  Li35  1  0.72900000  0.33100000  0.23900000  1.0
  Li+  Li36  1  0.10433333  0.83100000  0.76100000  1.0
  Li+  Li37  1  0.43766667  0.83100000  0.76100000  1.0
  Li+  Li38  1  0.77100000  0.83100000  0.76100000  1.0
  Li+  Li39  1  0.06233333  0.33100000  0.76100000  1.0
  Li+  Li40  1  0.39566667  0.33100000  0.76100000  1.0
  Li+  Li41  1  0.73102971  0.32959896  0.76189098  1.0
  Li+  Li42  1  0.10433333  0.83100000  0.23900000  1.0
  Li+  Li43  1  0.43766667  0.83100000  0.23900000  1.0
  Li+  Li44  1  0.77100000  0.83100000  0.23900000  1.0
  V5+  V45  1  0.22388516  0.41677558  0.99720111  1.0
  V5+  V46  1  0.55366667  0.41520000  0.00000000  1.0
  V5+  V47  1  0.88700000  0.41520000  0.00000000  1.0
  Ge4+  Ge48  1  0.28146189  0.91303941  0.99361530  1.0
  Ge4+  Ge49  1  0.61300000  0.91520000  0.00000000  1.0
  Ge4+  Ge50  1  0.94633333  0.91520000  0.00000000  1.0
  Ge4+  Ge51  1  0.05366667  0.08480000  0.50000000  1.0
  Ge4+  Ge52  1  0.38700000  0.08480000  0.50000000  1.0
  Ge4+  Ge53  1  0.72160921  0.08870420  0.49578945  1.0
  Ge4+  Ge54  1  0.11300000  0.58480000  0.50000000  1.0
  Ge4+  Ge55  1  0.44633333  0.58480000  0.50000000  1.0
  Ge4+  Ge56  1  0.77697052  0.58284259  0.50166762  1.0
  O2-  O57  1  0.24140000  0.83630000  0.77170000  1.0
  O2-  O58  1  0.57473333  0.83630000  0.77170000  1.0
  O2-  O59  1  0.90806667  0.83630000  0.77170000  1.0
  O2-  O60  1  0.25860000  0.33630000  0.22830000  1.0
  O2-  O61  1  0.59193333  0.33630000  0.22830000  1.0
  O2-  O62  1  0.92365543  0.33481911  0.22820902  1.0
  O2-  O63  1  0.09193333  0.16370000  0.27170000  1.0
  O2-  O64  1  0.42526667  0.16370000  0.27170000  1.0
  O2-  O65  1  0.75860000  0.16370000  0.27170000  1.0
  O2-  O66  1  0.07724816  0.66777727  0.73256669  1.0
  O2-  O67  1  0.40806667  0.66370000  0.72830000  1.0
  O2-  O68  1  0.74140000  0.66370000  0.72830000  1.0
  O2-  O69  1  0.09193333  0.16370000  0.72830000  1.0
  O2-  O70  1  0.42526667  0.16370000  0.72830000  1.0
  O2-  O71  1  0.75860000  0.16370000  0.72830000  1.0
  O2-  O72  1  0.07715170  0.65913983  0.26998975  1.0
  O2-  O73  1  0.40806667  0.66370000  0.27170000  1.0
  O2-  O74  1  0.74140000  0.66370000  0.27170000  1.0
  O2-  O75  1  0.24140000  0.83630000  0.22830000  1.0
  O2-  O76  1  0.57386333  0.83602795  0.23029063  1.0
  O2-  O77  1  0.90806667  0.83630000  0.22830000  1.0
  O2-  O78  1  0.25860000  0.33630000  0.77170000  1.0
  O2-  O79  1  0.59121074  0.33304890  0.77039589  1.0
  O2-  O80  1  0.92526667  0.33630000  0.77170000  1.0
  O2-  O81  1  0.05866667  0.91340000  0.00000000  1.0
  O2-  O82  1  0.39200000  0.91340000  0.00000000  1.0
  O2-  O83  1  0.72556212  0.90637071  0.99906610  1.0
  O2-  O84  1  0.10401723  0.41063613  0.00101023  1.0
  O2-  O85  1  0.43872461  0.41316598  0.99966272  1.0
  O2-  O86  1  0.77732600  0.41159203  0.99941019  1.0
  O2-  O87  1  0.27466667  0.08660000  0.50000000  1.0
  O2-  O88  1  0.60800000  0.08660000  0.50000000  1.0
  O2-  O89  1  0.94133333  0.08660000  0.50000000  1.0
  O2-  O90  1  0.22533333  0.58660000  0.50000000  1.0
  O2-  O91  1  0.55866667  0.58660000  0.50000000  1.0
  O2-  O92  1  0.88952405  0.58800857  0.49882140  1.0
  O2-  O93  1  0.25937061  0.56414839  0.00424107  1.0
  O2-  O94  1  0.59333333  0.56060000  0.00000000  1.0
  O2-  O95  1  0.92666667  0.56060000  0.00000000  1.0
  O2-  O96  1  0.24535722  0.06003334  0.99587146  1.0
  O2-  O97  1  0.57333333  0.06060000  0.00000000  1.0
  O2-  O98  1  0.90666667  0.06060000  0.00000000  1.0
  O2-  O99  1  0.07699595  0.43904572  0.50052396  1.0
  O2-  O100  1  0.40719762  0.43915035  0.49813883  1.0
  O2-  O101  1  0.74000000  0.43940000  0.50000000  1.0
  O2-  O102  1  0.09954038  0.94142493  0.49851623  1.0
  O2-  O103  1  0.42666667  0.93940000  0.50000000  1.0
  O2-  O104  1  0.76000000  0.93940000  0.50000000  1.0
