# generated using pymatgen
data_Li15VGe3O16
_symmetry_space_group_name_H-M   'P 1'
_cell_length_a   6.30028461
_cell_length_b   15.59178342
_cell_length_c   10.98085307
_cell_angle_alpha   90.00000000
_cell_angle_beta   90.00000000
_cell_angle_gamma   90.00000000
_symmetry_Int_Tables_number   1
_chemical_formula_structural   Li15VGe3O16
_chemical_formula_sum   'Li45 V3 Ge9 O48'
_cell_volume   1078.67855024
_cell_formula_units_Z   3
loop_
 _symmetry_equiv_pos_site_id
 _symmetry_equiv_pos_as_xyz
  1  'x, y, z'
loop_
 _atom_type_symbol
 _atom_type_oxidation_number
  Li+  1.0
  V5+  5.0
  Ge4+  4.0
  O2-  -2.0
loop_
 _atom_site_type_symbol
 _atom_site_label
 _atom_site_symmetry_multiplicity
 _atom_site_fract_x
 _atom_site_fract_y
 _atom_site_fract_z
 _atom_site_occupancy
  Li+  Li0  1  0.25000000  0.49500000  0.17300000  1.0
  Li+  Li1  1  0.25000000  0.16166667  0.17300000  1.0
  Li+  Li2  1  0.25000000  0.82833333  0.17300000  1.0
  Li+  Li3  1  0.75000000  0.50500000  0.82700000  1.0
  Li+  Li4  1  0.75000000  0.17166667  0.82700000  1.0
  Li+  Li5  1  0.75000000  0.83833333  0.82700000  1.0
  Li+  Li6  1  0.75000000  0.66166667  0.32700000  1.0
  Li+  Li7  1  0.75000000  0.32833333  0.32700000  1.0
  Li+  Li8  1  0.75000000  0.99500000  0.32700000  1.0
  Li+  Li9  1  0.51800000  0.46300000  0.96900000  1.0
  Li+  Li10  1  0.51800000  0.12966667  0.96900000  1.0
  Li+  Li11  1  0.51800000  0.79633333  0.96900000  1.0
  Li+  Li12  1  0.52700000  0.53633333  0.64300000  1.0
  Li+  Li13  1  0.52700000  0.20300000  0.64300000  1.0
  Li+  Li14  1  0.52700000  0.86966667  0.64300000  1.0
  Li+  Li15  1  0.47300000  0.46366667  0.35700000  1.0
  Li+  Li16  1  0.47300000  0.13033333  0.35700000  1.0
  Li+  Li17  1  0.47300000  0.79700000  0.35700000  1.0
  Li+  Li18  1  0.02700000  0.36966667  0.85700000  1.0
  Li+  Li19  1  0.02700000  0.03633333  0.85700000  1.0
  Li+  Li20  1  0.02700000  0.70300000  0.85700000  1.0
  Li+  Li21  1  0.25000000  0.61866667  0.42500000  1.0
  Li+  Li22  1  0.25000000  0.28533333  0.42500000  1.0
  Li+  Li23  1  0.25000000  0.95200000  0.42500000  1.0
  Li+  Li24  1  0.75000000  0.38133333  0.57500000  1.0
  Li+  Li25  1  0.75000000  0.04800000  0.57500000  1.0
  Li+  Li26  1  0.75000000  0.71466667  0.57500000  1.0
  Li+  Li27  1  0.75000000  0.45200000  0.07500000  1.0
  Li+  Li28  1  0.75000000  0.11866667  0.07500000  1.0
  Li+  Li29  1  0.75000000  0.78533333  0.07500000  1.0
  Li+  Li30  1  0.51100000  0.43766667  0.83100000  1.0
  Li+  Li31  1  0.51100000  0.10433333  0.83100000  1.0
  Li+  Li32  1  0.51100000  0.77100000  0.83100000  1.0
  Li+  Li33  1  0.48900000  0.60433333  0.66900000  1.0
  Li+  Li34  1  0.48900000  0.27100000  0.66900000  1.0
  Li+  Li35  1  0.48900000  0.93766667  0.66900000  1.0
  Li+  Li36  1  0.01100000  0.56233333  0.16900000  1.0
  Li+  Li37  1  0.01100000  0.22900000  0.16900000  1.0
  Li+  Li38  1  0.01100000  0.89566667  0.16900000  1.0
  Li+  Li39  1  0.01100000  0.60433333  0.66900000  1.0
  Li+  Li40  1  0.01100000  0.27100000  0.66900000  1.0
  Li+  Li41  1  0.01100000  0.93766667  0.66900000  1.0
  Li+  Li42  1  0.48900000  0.56233333  0.16900000  1.0
  Li+  Li43  1  0.48900000  0.22900000  0.16900000  1.0
  Li+  Li44  1  0.48900000  0.89566667  0.16900000  1.0
  V5+  V45  1  0.25000000  0.44633333  0.58480000  1.0
  V5+  V46  1  0.25000000  0.11300000  0.58480000  1.0
  V5+  V47  1  0.25000000  0.77966667  0.58480000  1.0
  Ge4+  Ge48  1  0.25000000  0.38700000  0.08480000  1.0
  Ge4+  Ge49  1  0.25000000  0.05366667  0.08480000  1.0
  Ge4+  Ge50  1  0.25000000  0.72033333  0.08480000  1.0
  Ge4+  Ge51  1  0.75000000  0.61300000  0.91520000  1.0
  Ge4+  Ge52  1  0.75000000  0.27966667  0.91520000  1.0
  Ge4+  Ge53  1  0.75000000  0.94633333  0.91520000  1.0
  Ge4+  Ge54  1  0.75000000  0.55366667  0.41520000  1.0
  Ge4+  Ge55  1  0.75000000  0.22033333  0.41520000  1.0
  Ge4+  Ge56  1  0.75000000  0.88700000  0.41520000  1.0
  O2-  O57  1  0.02170000  0.42526667  0.16370000  1.0
  O2-  O58  1  0.02170000  0.09193333  0.16370000  1.0
  O2-  O59  1  0.02170000  0.75860000  0.16370000  1.0
  O2-  O60  1  0.47830000  0.40806667  0.66370000  1.0
  O2-  O61  1  0.47830000  0.07473333  0.66370000  1.0
  O2-  O62  1  0.47830000  0.74140000  0.66370000  1.0
  O2-  O63  1  0.52170000  0.57473333  0.83630000  1.0
  O2-  O64  1  0.52170000  0.24140000  0.83630000  1.0
  O2-  O65  1  0.52170000  0.90806667  0.83630000  1.0
  O2-  O66  1  0.97830000  0.59193333  0.33630000  1.0
  O2-  O67  1  0.97830000  0.25860000  0.33630000  1.0
  O2-  O68  1  0.97830000  0.92526667  0.33630000  1.0
  O2-  O69  1  0.97830000  0.57473333  0.83630000  1.0
  O2-  O70  1  0.97830000  0.24140000  0.83630000  1.0
  O2-  O71  1  0.97830000  0.90806667  0.83630000  1.0
  O2-  O72  1  0.52170000  0.59193333  0.33630000  1.0
  O2-  O73  1  0.52170000  0.25860000  0.33630000  1.0
  O2-  O74  1  0.52170000  0.92526667  0.33630000  1.0
  O2-  O75  1  0.47830000  0.42526667  0.16370000  1.0
  O2-  O76  1  0.47830000  0.09193333  0.16370000  1.0
  O2-  O77  1  0.47830000  0.75860000  0.16370000  1.0
  O2-  O78  1  0.02170000  0.40806667  0.66370000  1.0
  O2-  O79  1  0.02170000  0.07473333  0.66370000  1.0
  O2-  O80  1  0.02170000  0.74140000  0.66370000  1.0
  O2-  O81  1  0.25000000  0.60800000  0.08660000  1.0
  O2-  O82  1  0.25000000  0.27466667  0.08660000  1.0
  O2-  O83  1  0.25000000  0.94133333  0.08660000  1.0
  O2-  O84  1  0.25000000  0.55866667  0.58660000  1.0
  O2-  O85  1  0.25000000  0.22533333  0.58660000  1.0
  O2-  O86  1  0.25000000  0.89200000  0.58660000  1.0
  O2-  O87  1  0.75000000  0.39200000  0.91340000  1.0
  O2-  O88  1  0.75000000  0.05866667  0.91340000  1.0
  O2-  O89  1  0.75000000  0.72533333  0.91340000  1.0
  O2-  O90  1  0.75000000  0.44133333  0.41340000  1.0
  O2-  O91  1  0.75000000  0.10800000  0.41340000  1.0
  O2-  O92  1  0.75000000  0.77466667  0.41340000  1.0
  O2-  O93  1  0.25000000  0.40666667  0.43940000  1.0
  O2-  O94  1  0.25000000  0.07333333  0.43940000  1.0
  O2-  O95  1  0.25000000  0.74000000  0.43940000  1.0
  O2-  O96  1  0.25000000  0.42666667  0.93940000  1.0
  O2-  O97  1  0.25000000  0.09333333  0.93940000  1.0
  O2-  O98  1  0.25000000  0.76000000  0.93940000  1.0
  O2-  O99  1  0.75000000  0.59333333  0.56060000  1.0
  O2-  O100  1  0.75000000  0.26000000  0.56060000  1.0
  O2-  O101  1  0.75000000  0.92666667  0.56060000  1.0
  O2-  O102  1  0.75000000  0.57333333  0.06060000  1.0
  O2-  O103  1  0.75000000  0.24000000  0.06060000  1.0
  O2-  O104  1  0.75000000  0.90666667  0.06060000  1.0
