# generated using pymatgen
data_Li15VGe3O16
_symmetry_space_group_name_H-M   'P 1'
_cell_length_a   15.47130000
_cell_length_b   6.25160000
_cell_length_c   10.89600000
_cell_angle_alpha   90.00000000
_cell_angle_beta   90.00000000
_cell_angle_gamma   90.00000000
_symmetry_Int_Tables_number   1
_chemical_formula_structural   Li15VGe3O16
_chemical_formula_sum   'Li45 V3 Ge9 O48'
_cell_volume   1053.86525046
_cell_formula_units_Z   3
loop_
 _symmetry_equiv_pos_site_id
 _symmetry_equiv_pos_as_xyz
  1  'x, y, z'
loop_
 _atom_type_symbol
 _atom_type_oxidation_number
  Li+  1.0
  V5+  5.0
  Ge4+  4.0
  O2-  -2.0
loop_
 _atom_site_type_symbol
 _atom_site_label
 _atom_site_symmetry_multiplicity
 _atom_site_fract_x
 _atom_site_fract_y
 _atom_site_fract_z
 _atom_site_occupancy
  Li+  Li0  1  0.17166667  0.75000000  0.17300000  1.0
  Li+  Li0  1  0.50500000  0.75000000  0.17300000  1.0
  Li+  Li0  1  0.83833333  0.75000000  0.17300000  1.0
  Li+  Li1  1  0.16166667  0.25000000  0.82700000  1.0
  Li+  Li1  1  0.49500000  0.25000000  0.82700000  1.0
  Li+  Li1  1  0.82833333  0.25000000  0.82700000  1.0
  Li+  Li2  1  0.00500000  0.25000000  0.32700000  1.0
  Li+  Li2  1  0.33833333  0.25000000  0.32700000  1.0
  Li+  Li2  1  0.67166667  0.25000000  0.32700000  1.0
  Li+  Li3  1  0.20366667  0.48200000  0.96900000  1.0
  Li+  Li3  1  0.53700000  0.48200000  0.96900000  1.0
  Li+  Li3  1  0.87033333  0.48200000  0.96900000  1.0
  Li+  Li4  1  0.13033333  0.47300000  0.64300000  1.0
  Li+  Li4  1  0.46366667  0.47300000  0.64300000  1.0
  Li+  Li4  1  0.79700000  0.47300000  0.64300000  1.0
  Li+  Li5  1  0.20300000  0.52700000  0.35700000  1.0
  Li+  Li5  1  0.53633333  0.52700000  0.35700000  1.0
  Li+  Li5  1  0.86966667  0.52700000  0.35700000  1.0
  Li+  Li6  1  0.29700000  0.97300000  0.85700000  1.0
  Li+  Li6  1  0.63033333  0.97300000  0.85700000  1.0
  Li+  Li6  1  0.96366667  0.97300000  0.85700000  1.0
  Li+  Li7  1  0.04800000  0.75000000  0.42500000  1.0
  Li+  Li7  1  0.38133333  0.75000000  0.42500000  1.0
  Li+  Li7  1  0.71466667  0.75000000  0.42500000  1.0
  Li+  Li8  1  0.28533333  0.25000000  0.57500000  1.0
  Li+  Li8  1  0.61866667  0.25000000  0.57500000  1.0
  Li+  Li8  1  0.95200000  0.25000000  0.57500000  1.0
  Li+  Li9  1  0.21466667  0.25000000  0.07500000  1.0
  Li+  Li9  1  0.54800000  0.25000000  0.07500000  1.0
  Li+  Li9  1  0.88133333  0.25000000  0.07500000  1.0
  Li+  Li10  1  0.22900000  0.48900000  0.83100000  1.0
  Li+  Li10  1  0.56233333  0.48900000  0.83100000  1.0
  Li+  Li10  1  0.89566667  0.48900000  0.83100000  1.0
  Li+  Li11  1  0.06233333  0.51100000  0.66900000  1.0
  Li+  Li11  1  0.39566667  0.51100000  0.66900000  1.0
  Li+  Li11  1  0.72900000  0.51100000  0.66900000  1.0
  Li+  Li12  1  0.10433333  0.98900000  0.16900000  1.0
  Li+  Li12  1  0.43766667  0.98900000  0.16900000  1.0
  Li+  Li12  1  0.77100000  0.98900000  0.16900000  1.0
  Li+  Li13  1  0.06233333  0.98900000  0.66900000  1.0
  Li+  Li13  1  0.39566667  0.98900000  0.66900000  1.0
  Li+  Li13  1  0.72900000  0.98900000  0.66900000  1.0
  Li+  Li14  1  0.10433333  0.51100000  0.16900000  1.0
  Li+  Li14  1  0.43766667  0.51100000  0.16900000  1.0
  Li+  Li14  1  0.77100000  0.51100000  0.16900000  1.0
  V5+  V15  1  0.22033333  0.75000000  0.58480000  1.0
  V5+  V15  1  0.55366667  0.75000000  0.58480000  1.0
  V5+  V15  1  0.88700000  0.75000000  0.58480000  1.0
  Ge4+  Ge16  1  0.27966667  0.75000000  0.08480000  1.0
  Ge4+  Ge16  1  0.61300000  0.75000000  0.08480000  1.0
  Ge4+  Ge16  1  0.94633333  0.75000000  0.08480000  1.0
  Ge4+  Ge17  1  0.05366667  0.25000000  0.91520000  1.0
  Ge4+  Ge17  1  0.38700000  0.25000000  0.91520000  1.0
  Ge4+  Ge17  1  0.72033333  0.25000000  0.91520000  1.0
  Ge4+  Ge18  1  0.11300000  0.25000000  0.41520000  1.0
  Ge4+  Ge18  1  0.44633333  0.25000000  0.41520000  1.0
  Ge4+  Ge18  1  0.77966667  0.25000000  0.41520000  1.0
  O2-  O1  1  0.24140000  0.97830000  0.16370000  1.0
  O2-  O1  1  0.57473333  0.97830000  0.16370000  1.0
  O2-  O1  1  0.90806667  0.97830000  0.16370000  1.0
  O2-  O1  1  0.25860000  0.52170000  0.66370000  1.0
  O2-  O1  1  0.59193333  0.52170000  0.66370000  1.0
  O2-  O1  1  0.92526667  0.52170000  0.66370000  1.0
  O2-  O1  1  0.09193333  0.47830000  0.83630000  1.0
  O2-  O1  1  0.42526667  0.47830000  0.83630000  1.0
  O2-  O1  1  0.75860000  0.47830000  0.83630000  1.0
  O2-  O1  1  0.07473333  0.02170000  0.33630000  1.0
  O2-  O1  1  0.40806667  0.02170000  0.33630000  1.0
  O2-  O1  1  0.74140000  0.02170000  0.33630000  1.0
  O2-  O1  1  0.09193333  0.02170000  0.83630000  1.0
  O2-  O1  1  0.42526667  0.02170000  0.83630000  1.0
  O2-  O1  1  0.75860000  0.02170000  0.83630000  1.0
  O2-  O1  1  0.07473333  0.47830000  0.33630000  1.0
  O2-  O1  1  0.40806667  0.47830000  0.33630000  1.0
  O2-  O1  1  0.74140000  0.47830000  0.33630000  1.0
  O2-  O1  1  0.24140000  0.52170000  0.16370000  1.0
  O2-  O1  1  0.57473333  0.52170000  0.16370000  1.0
  O2-  O1  1  0.90806667  0.52170000  0.16370000  1.0
  O2-  O1  1  0.25860000  0.97830000  0.66370000  1.0
  O2-  O1  1  0.59193333  0.97830000  0.66370000  1.0
  O2-  O1  1  0.92526667  0.97830000  0.66370000  1.0
  O2-  O2  1  0.05866667  0.75000000  0.08660000  1.0
  O2-  O2  1  0.39200000  0.75000000  0.08660000  1.0
  O2-  O2  1  0.72533333  0.75000000  0.08660000  1.0
  O2-  O2  1  0.10800000  0.75000000  0.58660000  1.0
  O2-  O2  1  0.44133333  0.75000000  0.58660000  1.0
  O2-  O2  1  0.77466667  0.75000000  0.58660000  1.0
  O2-  O2  1  0.27466667  0.25000000  0.91340000  1.0
  O2-  O2  1  0.60800000  0.25000000  0.91340000  1.0
  O2-  O2  1  0.94133333  0.25000000  0.91340000  1.0
  O2-  O2  1  0.22533333  0.25000000  0.41340000  1.0
  O2-  O2  1  0.55866667  0.25000000  0.41340000  1.0
  O2-  O2  1  0.89200000  0.25000000  0.41340000  1.0
  O2-  O3  1  0.26000000  0.75000000  0.43940000  1.0
  O2-  O3  1  0.59333333  0.75000000  0.43940000  1.0
  O2-  O3  1  0.92666667  0.75000000  0.43940000  1.0
  O2-  O3  1  0.24000000  0.75000000  0.93940000  1.0
  O2-  O3  1  0.57333333  0.75000000  0.93940000  1.0
  O2-  O3  1  0.90666667  0.75000000  0.93940000  1.0
  O2-  O3  1  0.07333333  0.25000000  0.56060000  1.0
  O2-  O3  1  0.40666667  0.25000000  0.56060000  1.0
  O2-  O3  1  0.74000000  0.25000000  0.56060000  1.0
  O2-  O3  1  0.09333333  0.25000000  0.06060000  1.0
  O2-  O3  1  0.42666667  0.25000000  0.06060000  1.0
  O2-  O3  1  0.76000000  0.25000000  0.06060000  1.0
