# generated using pymatgen
data_Li63SnP7(Se5I)10
_symmetry_space_group_name_H-M   'P 1'
_cell_length_a   37.77930111
_cell_length_b   7.55586022
_cell_length_c   15.11172044
_cell_angle_alpha   60.00000000
_cell_angle_beta   120.00000000
_cell_angle_gamma   120.00000000
_symmetry_Int_Tables_number   1
_chemical_formula_structural   Li63SnP7(Se5I)10
_chemical_formula_sum   'Li63 Sn1 P7 Se50 I10'
_cell_volume   3050.25921271
_cell_formula_units_Z   1
loop_
 _symmetry_equiv_pos_site_id
 _symmetry_equiv_pos_as_xyz
  1  'x, y, z'
loop_
 _atom_type_symbol
 _atom_type_oxidation_number
  Li+  1.0
  Sn4+  4.0
  P5+  5.0
  Se2-  -2.0
  I-  -1.0
loop_
 _atom_site_type_symbol
 _atom_site_label
 _atom_site_symmetry_multiplicity
 _atom_site_fract_x
 _atom_site_fract_y
 _atom_site_fract_z
 _atom_site_occupancy
  Li+  Li0  1  0.29600000  0.52000000  0.24000000  1.0
  Li+  Li1  1  0.69600000  0.52000000  0.24000000  1.0
  Li+  Li2  1  0.00400000  0.52000000  0.51000000  1.0
  Li+  Li3  1  0.60400000  0.52000000  0.01000000  1.0
  Li+  Li4  1  0.09332982  0.97785651  0.24292080  1.0
  Li+  Li5  1  0.69600000  0.98000000  0.24000000  1.0
  Li+  Li6  1  0.89600000  0.98000000  0.74000000  1.0
  Li+  Li7  1  0.89600000  0.98000000  0.24000000  1.0
  Li+  Li8  1  0.00400000  0.52000000  0.74000000  1.0
  Li+  Li9  1  0.20400000  0.52000000  0.24000000  1.0
  Li+  Li10  1  0.80400000  0.52000000  0.74000000  1.0
  Li+  Li11  1  0.20400000  0.98000000  0.01000000  1.0
  Li+  Li12  1  0.40278270  0.98237480  0.51314542  1.0
  Li+  Li13  1  0.60400000  0.98000000  0.01000000  1.0
  Li+  Li14  1  0.80400000  0.98000000  0.01000000  1.0
  Li+  Li15  1  0.29600000  0.98000000  0.01000000  1.0
  Li+  Li16  1  0.89551185  0.98266876  0.01144453  1.0
  Li+  Li17  1  0.27900000  0.44500000  0.73750000  1.0
  Li+  Li18  1  0.47900000  0.44500000  0.23750000  1.0
  Li+  Li19  1  0.67900000  0.44500000  0.73750000  1.0
  Li+  Li20  1  0.00500000  0.60500000  0.97250000  1.0
  Li+  Li21  1  0.20500000  0.60500000  0.47250000  1.0
  Li+  Li22  1  0.20500000  0.60500000  0.97250000  1.0
  Li+  Li23  1  0.40500000  0.60500000  0.97250000  1.0
  Li+  Li24  1  0.60367832  0.60538083  0.46712571  1.0
  Li+  Li25  1  0.30947761  0.97594029  0.74103547  1.0
  Li+  Li26  1  0.31100000  0.97500000  0.23750000  1.0
  Li+  Li27  1  0.51100000  0.97500000  0.23750000  1.0
  Li+  Li28  1  0.71446622  0.97549847  0.73620582  1.0
  Li+  Li29  1  0.91227555  0.97827811  0.73706679  1.0
  Li+  Li30  1  0.11100000  0.60500000  0.73750000  1.0
  Li+  Li31  1  0.31100000  0.60500000  0.23750000  1.0
  Li+  Li32  1  0.51100000  0.60500000  0.73750000  1.0
  Li+  Li33  1  0.50987593  0.60761907  0.23507631  1.0
  Li+  Li34  1  0.71100000  0.60500000  0.73750000  1.0
  Li+  Li35  1  0.40629850  0.44708482  0.23851625  1.0
  Li+  Li36  1  0.60687481  0.44553557  0.74233417  1.0
  Li+  Li37  1  0.60299110  0.44598679  0.23695513  1.0
  Li+  Li38  1  0.80500000  0.44500000  0.23750000  1.0
  Li+  Li39  1  0.20500000  0.60500000  0.23750000  1.0
  Li+  Li40  1  0.40236146  0.60777129  0.24143988  1.0
  Li+  Li41  1  0.80777955  0.59997000  0.23979504  1.0
  Li+  Li42  1  0.00500000  0.44500000  0.05250000  1.0
  Li+  Li43  1  0.40200227  0.44167812  0.55099452  1.0
  Li+  Li44  1  0.00500000  0.97500000  0.55250000  1.0
  Li+  Li45  1  0.40500000  0.97500000  0.55250000  1.0
  Li+  Li46  1  0.60778607  0.97863621  0.55391730  1.0
  Li+  Li47  1  0.80500000  0.97500000  0.05250000  1.0
  Li+  Li48  1  0.07900000  0.97500000  0.23750000  1.0
  Li+  Li49  1  0.27900000  0.97500000  0.73750000  1.0
  Li+  Li50  1  0.47785046  0.97691275  0.73573630  1.0
  Li+  Li51  1  0.67900000  0.97500000  0.73750000  1.0
  Li+  Li52  1  0.00500000  0.97500000  0.47250000  1.0
  Li+  Li53  1  0.20500000  0.97500000  0.97250000  1.0
  Li+  Li54  1  0.80500000  0.97500000  0.47250000  1.0
  Li+  Li55  1  0.11293735  0.97209708  0.55353384  1.0
  Li+  Li56  1  0.31133744  0.97291265  0.05191881  1.0
  Li+  Li57  1  0.51100000  0.97500000  0.05250000  1.0
  Li+  Li58  1  0.71100000  0.97500000  0.55250000  1.0
  Li+  Li59  1  0.91100000  0.97500000  0.55250000  1.0
  Li+  Li60  1  0.48154478  0.97525679  0.96931843  1.0
  Li+  Li61  1  0.67900000  0.97500000  0.97250000  1.0
  Li+  Li62  1  0.88130189  0.97414724  0.47112617  1.0
  Sn4+  Sn63  1  0.90000000  0.50000000  0.50000000  1.0
  P5+  P64  1  0.10000000  0.50000000  0.50000000  1.0
  P5+  P65  1  0.09985369  0.49936159  0.99928363  1.0
  P5+  P66  1  0.30000000  0.50000000  0.50000000  1.0
  P5+  P67  1  0.30000000  0.50000000  0.00000000  1.0
  P5+  P68  1  0.50000000  0.50000000  0.50000000  1.0
  P5+  P69  1  0.69866551  0.49878305  0.00172355  1.0
  P5+  P70  1  0.90000000  0.50000000  0.00000000  1.0
  Se2-  Se71  1  0.12460000  0.37700000  0.68450000  1.0
  Se2-  Se72  1  0.12460000  0.37700000  0.18450000  1.0
  Se2-  Se73  1  0.32460000  0.37700000  0.68450000  1.0
  Se2-  Se74  1  0.32460000  0.37700000  0.18450000  1.0
  Se2-  Se75  1  0.52752616  0.37790371  0.68543310  1.0
  Se2-  Se76  1  0.52460000  0.37700000  0.18450000  1.0
  Se2-  Se77  1  0.72394051  0.37892892  0.68588645  1.0
  Se2-  Se78  1  0.72460000  0.37700000  0.18450000  1.0
  Se2-  Se79  1  0.92460000  0.37700000  0.68450000  1.0
  Se2-  Se80  1  0.92460000  0.37700000  0.18450000  1.0
  Se2-  Se81  1  0.12460000  0.37700000  0.43850000  1.0
  Se2-  Se82  1  0.12460000  0.37700000  0.93850000  1.0
  Se2-  Se83  1  0.32460000  0.37700000  0.43850000  1.0
  Se2-  Se84  1  0.32460000  0.37700000  0.93850000  1.0
  Se2-  Se85  1  0.52460000  0.37700000  0.43850000  1.0
  Se2-  Se86  1  0.52460000  0.37700000  0.93850000  1.0
  Se2-  Se87  1  0.72087957  0.37907456  0.43496948  1.0
  Se2-  Se88  1  0.72460000  0.37700000  0.93850000  1.0
  Se2-  Se89  1  0.92460000  0.37700000  0.43850000  1.0
  Se2-  Se90  1  0.92460000  0.37700000  0.93850000  1.0
  Se2-  Se91  1  0.12499860  0.86909037  0.43550347  1.0
  Se2-  Se92  1  0.12460000  0.86900000  0.93850000  1.0
  Se2-  Se93  1  0.32460000  0.86900000  0.43850000  1.0
  Se2-  Se94  1  0.32460000  0.86900000  0.93850000  1.0
  Se2-  Se95  1  0.52460000  0.86900000  0.43850000  1.0
  Se2-  Se96  1  0.52214076  0.86557402  0.94034681  1.0
  Se2-  Se97  1  0.72460000  0.86900000  0.43850000  1.0
  Se2-  Se98  1  0.72460000  0.86900000  0.93850000  1.0
  Se2-  Se99  1  0.92460000  0.86900000  0.43850000  1.0
  Se2-  Se100  1  0.92397863  0.86993038  0.93540954  1.0
  Se2-  Se101  1  0.02620000  0.37700000  0.43850000  1.0
  Se2-  Se102  1  0.02620000  0.37700000  0.93850000  1.0
  Se2-  Se103  1  0.22620000  0.37700000  0.43850000  1.0
  Se2-  Se104  1  0.22620000  0.37700000  0.93850000  1.0
  Se2-  Se105  1  0.42620000  0.37700000  0.43850000  1.0
  Se2-  Se106  1  0.42501922  0.37566565  0.93960429  1.0
  Se2-  Se107  1  0.62620000  0.37700000  0.43850000  1.0
  Se2-  Se108  1  0.62620000  0.37700000  0.93850000  1.0
  Se2-  Se109  1  0.82620000  0.37700000  0.43850000  1.0
  Se2-  Se110  1  0.82620000  0.37700000  0.93850000  1.0
  Se2-  Se111  1  0.20000000  0.00000000  0.25000000  1.0
  Se2-  Se112  1  0.05000000  0.75000000  0.62500000  1.0
  Se2-  Se113  1  0.05000000  0.75000000  0.12500000  1.0
  Se2-  Se114  1  0.25000000  0.75000000  0.62500000  1.0
  Se2-  Se115  1  0.25000000  0.75000000  0.12500000  1.0
  Se2-  Se116  1  0.45000000  0.75000000  0.62500000  1.0
  Se2-  Se117  1  0.45000000  0.75000000  0.12500000  1.0
  Se2-  Se118  1  0.65547392  0.74682449  0.12515777  1.0
  Se2-  Se119  1  0.85000000  0.75000000  0.62500000  1.0
  Se2-  Se120  1  0.85000000  0.75000000  0.12500000  1.0
  I-  I121  1  0.00000000  0.00000000  0.75000000  1.0
  I-  I122  1  0.00000000  0.00000000  0.25000000  1.0
  I-  I123  1  0.20000000  0.00000000  0.75000000  1.0
  I-  I124  1  0.40000000  0.00000000  0.75000000  1.0
  I-  I125  1  0.40000000  0.00000000  0.25000000  1.0
  I-  I126  1  0.60000000  0.00000000  0.75000000  1.0
  I-  I127  1  0.59884021  0.99793681  0.24686393  1.0
  I-  I128  1  0.80145736  0.00590363  0.74967302  1.0
  I-  I129  1  0.80000000  0.00000000  0.25000000  1.0
  I-  I130  1  0.65000000  0.75000000  0.62500000  1.0
