# generated using pymatgen
data_Li63SnP7(Se5I)10
_symmetry_space_group_name_H-M   'P 1'
_cell_length_a   15.25344286
_cell_length_b   38.13360716
_cell_length_c   7.62672143
_cell_angle_alpha   120.00000000
_cell_angle_beta   120.00000000
_cell_angle_gamma   60.00000000
_symmetry_Int_Tables_number   1
_chemical_formula_structural   Li63SnP7(Se5I)10
_chemical_formula_sum   'Li63 Sn1 P7 Se50 I10'
_cell_volume   3136.88540673
_cell_formula_units_Z   1
loop_
 _symmetry_equiv_pos_site_id
 _symmetry_equiv_pos_as_xyz
  1  'x, y, z'
loop_
 _atom_type_symbol
 _atom_type_oxidation_number
  Li+  1.0
  Sn4+  4.0
  P5+  5.0
  Se2-  -2.0
  I-  -1.0
loop_
 _atom_site_type_symbol
 _atom_site_label
 _atom_site_symmetry_multiplicity
 _atom_site_fract_x
 _atom_site_fract_y
 _atom_site_fract_z
 _atom_site_occupancy
  Li+  Li0  1  0.49000000  0.37066667  0.48000000  1.0
  Li+  Li1  1  0.49000000  0.97066667  0.48000000  1.0
  Li+  Li2  1  0.76000000  0.66266667  0.48000000  1.0
  Li+  Li3  1  0.26000000  0.06266667  0.48000000  1.0
  Li+  Li4  1  0.49000000  0.57066667  0.02000000  1.0
  Li+  Li5  1  0.49000000  0.97066667  0.02000000  1.0
  Li+  Li6  1  0.99000000  0.77066667  0.02000000  1.0
  Li+  Li7  1  0.49000000  0.77066667  0.02000000  1.0
  Li+  Li8  1  0.99000000  0.66266667  0.48000000  1.0
  Li+  Li9  1  0.49000000  0.46266667  0.48000000  1.0
  Li+  Li10  1  0.99000000  0.86266667  0.48000000  1.0
  Li+  Li11  1  0.26000000  0.46266667  0.02000000  1.0
  Li+  Li12  1  0.76000000  0.26266667  0.02000000  1.0
  Li+  Li13  1  0.26000000  0.06266667  0.02000000  1.0
  Li+  Li14  1  0.26000000  0.86266667  0.02000000  1.0
  Li+  Li15  1  0.26000000  0.37066667  0.02000000  1.0
  Li+  Li16  1  0.26000000  0.77066667  0.02000000  1.0
  Li+  Li17  1  0.98750000  0.38766667  0.55500000  1.0
  Li+  Li18  1  0.48750000  0.18766667  0.55500000  1.0
  Li+  Li19  1  0.98750000  0.98766667  0.55500000  1.0
  Li+  Li20  1  0.22250000  0.66166667  0.39500000  1.0
  Li+  Li21  1  0.72250000  0.46166667  0.39500000  1.0
  Li+  Li22  1  0.22250000  0.46166667  0.39500000  1.0
  Li+  Li23  1  0.22250000  0.26166667  0.39500000  1.0
  Li+  Li24  1  0.72250000  0.06166667  0.39500000  1.0
  Li+  Li25  1  0.98750000  0.35566667  0.02500000  1.0
  Li+  Li26  1  0.48750000  0.35566667  0.02500000  1.0
  Li+  Li27  1  0.48750000  0.15566667  0.02500000  1.0
  Li+  Li28  1  0.98750000  0.95566667  0.02500000  1.0
  Li+  Li29  1  0.98750000  0.75566667  0.02500000  1.0
  Li+  Li30  1  0.98750000  0.55566667  0.39500000  1.0
  Li+  Li31  1  0.48750000  0.35566667  0.39500000  1.0
  Li+  Li32  1  0.98750000  0.15566667  0.39500000  1.0
  Li+  Li33  1  0.48750000  0.15566667  0.39500000  1.0
  Li+  Li34  1  0.98750000  0.95566667  0.39500000  1.0
  Li+  Li35  1  0.48750000  0.26166667  0.55500000  1.0
  Li+  Li36  1  0.98750000  0.06166667  0.55500000  1.0
  Li+  Li37  1  0.48750000  0.06166667  0.55500000  1.0
  Li+  Li38  1  0.48750000  0.86166667  0.55500000  1.0
  Li+  Li39  1  0.48750000  0.46166667  0.39500000  1.0
  Li+  Li40  1  0.48750000  0.26166667  0.39500000  1.0
  Li+  Li41  1  0.48750000  0.86166667  0.39500000  1.0
  Li+  Li42  1  0.30250000  0.66166667  0.55500000  1.0
  Li+  Li43  1  0.80250000  0.26166667  0.55500000  1.0
  Li+  Li44  1  0.80250000  0.66166667  0.02500000  1.0
  Li+  Li45  1  0.80250000  0.26166667  0.02500000  1.0
  Li+  Li46  1  0.80250000  0.06166667  0.02500000  1.0
  Li+  Li47  1  0.30250000  0.86166667  0.02500000  1.0
  Li+  Li48  1  0.48750000  0.58766667  0.02500000  1.0
  Li+  Li49  1  0.98750000  0.38766667  0.02500000  1.0
  Li+  Li50  1  0.98750000  0.18766667  0.02500000  1.0
  Li+  Li51  1  0.98750000  0.98766667  0.02500000  1.0
  Li+  Li52  1  0.72250000  0.66166667  0.02500000  1.0
  Li+  Li53  1  0.22250000  0.46166667  0.02500000  1.0
  Li+  Li54  1  0.72250000  0.86166667  0.02500000  1.0
  Li+  Li55  1  0.80250000  0.55566667  0.02500000  1.0
  Li+  Li56  1  0.30250000  0.35566667  0.02500000  1.0
  Li+  Li57  1  0.30250000  0.15566667  0.02500000  1.0
  Li+  Li58  1  0.80250000  0.95566667  0.02500000  1.0
  Li+  Li59  1  0.80250000  0.75566667  0.02500000  1.0
  Li+  Li60  1  0.22250000  0.18766667  0.02500000  1.0
  Li+  Li61  1  0.22250000  0.98766667  0.02500000  1.0
  Li+  Li62  1  0.72250000  0.78766667  0.02500000  1.0
  Sn4+  Sn63  1  0.75000000  0.76666667  0.50000000  1.0
  P5+  P64  1  0.75000000  0.56666667  0.50000000  1.0
  P5+  P65  1  0.25000000  0.56666667  0.50000000  1.0
  P5+  P66  1  0.75000000  0.36666667  0.50000000  1.0
  P5+  P67  1  0.25000000  0.36666667  0.50000000  1.0
  P5+  P68  1  0.75000000  0.16666667  0.50000000  1.0
  P5+  P69  1  0.25000000  0.96666667  0.50000000  1.0
  P5+  P70  1  0.25000000  0.76666667  0.50000000  1.0
  Se2-  Se71  1  0.93450000  0.54206667  0.62300000  1.0
  Se2-  Se72  1  0.43450000  0.54206667  0.62300000  1.0
  Se2-  Se73  1  0.93450000  0.34206667  0.62300000  1.0
  Se2-  Se74  1  0.43450000  0.34206667  0.62300000  1.0
  Se2-  Se75  1  0.93450000  0.14206667  0.62300000  1.0
  Se2-  Se76  1  0.43450000  0.14206667  0.62300000  1.0
  Se2-  Se77  1  0.93450000  0.94206667  0.62300000  1.0
  Se2-  Se78  1  0.43450000  0.94206667  0.62300000  1.0
  Se2-  Se79  1  0.93450000  0.74206667  0.62300000  1.0
  Se2-  Se80  1  0.43450000  0.74206667  0.62300000  1.0
  Se2-  Se81  1  0.68850000  0.54206667  0.62300000  1.0
  Se2-  Se82  1  0.18850000  0.54206667  0.62300000  1.0
  Se2-  Se83  1  0.68850000  0.34206667  0.62300000  1.0
  Se2-  Se84  1  0.18850000  0.34206667  0.62300000  1.0
  Se2-  Se85  1  0.68850000  0.14206667  0.62300000  1.0
  Se2-  Se86  1  0.18850000  0.14206667  0.62300000  1.0
  Se2-  Se87  1  0.68850000  0.94206667  0.62300000  1.0
  Se2-  Se88  1  0.18850000  0.94206667  0.62300000  1.0
  Se2-  Se89  1  0.68850000  0.74206667  0.62300000  1.0
  Se2-  Se90  1  0.18850000  0.74206667  0.62300000  1.0
  Se2-  Se91  1  0.68850000  0.54206667  0.13100000  1.0
  Se2-  Se92  1  0.18850000  0.54206667  0.13100000  1.0
  Se2-  Se93  1  0.68850000  0.34206667  0.13100000  1.0
  Se2-  Se94  1  0.18850000  0.34206667  0.13100000  1.0
  Se2-  Se95  1  0.68850000  0.14206667  0.13100000  1.0
  Se2-  Se96  1  0.18850000  0.14206667  0.13100000  1.0
  Se2-  Se97  1  0.68850000  0.94206667  0.13100000  1.0
  Se2-  Se98  1  0.18850000  0.94206667  0.13100000  1.0
  Se2-  Se99  1  0.68850000  0.74206667  0.13100000  1.0
  Se2-  Se100  1  0.18850000  0.74206667  0.13100000  1.0
  Se2-  Se101  1  0.68850000  0.64046667  0.62300000  1.0
  Se2-  Se102  1  0.18850000  0.64046667  0.62300000  1.0
  Se2-  Se103  1  0.68850000  0.44046667  0.62300000  1.0
  Se2-  Se104  1  0.18850000  0.44046667  0.62300000  1.0
  Se2-  Se105  1  0.68850000  0.24046667  0.62300000  1.0
  Se2-  Se106  1  0.18850000  0.24046667  0.62300000  1.0
  Se2-  Se107  1  0.68850000  0.04046667  0.62300000  1.0
  Se2-  Se108  1  0.18850000  0.04046667  0.62300000  1.0
  Se2-  Se109  1  0.68850000  0.84046667  0.62300000  1.0
  Se2-  Se110  1  0.18850000  0.84046667  0.62300000  1.0
  Se2-  Se111  1  0.50000000  0.46666667  0.00000000  1.0
  Se2-  Se112  1  0.87500000  0.61666667  0.25000000  1.0
  Se2-  Se113  1  0.37500000  0.61666667  0.25000000  1.0
  Se2-  Se114  1  0.87500000  0.41666667  0.25000000  1.0
  Se2-  Se115  1  0.37500000  0.41666667  0.25000000  1.0
  Se2-  Se116  1  0.87500000  0.21666667  0.25000000  1.0
  Se2-  Se117  1  0.37500000  0.21666667  0.25000000  1.0
  Se2-  Se118  1  0.37500000  0.01666667  0.25000000  1.0
  Se2-  Se119  1  0.87500000  0.81666667  0.25000000  1.0
  Se2-  Se120  1  0.37500000  0.81666667  0.25000000  1.0
  I-  I121  1  0.00000000  0.66666667  0.00000000  1.0
  I-  I122  1  0.50000000  0.66666667  0.00000000  1.0
  I-  I123  1  0.00000000  0.46666667  0.00000000  1.0
  I-  I124  1  0.00000000  0.26666667  0.00000000  1.0
  I-  I125  1  0.50000000  0.26666667  0.00000000  1.0
  I-  I126  1  0.00000000  0.06666667  0.00000000  1.0
  I-  I127  1  0.50000000  0.06666667  0.00000000  1.0
  I-  I128  1  0.00000000  0.86666667  0.00000000  1.0
  I-  I129  1  0.50000000  0.86666667  0.00000000  1.0
  I-  I130  1  0.87500000  0.01666667  0.25000000  1.0
