# generated using pymatgen
data_Li6I3N
_symmetry_space_group_name_H-M   'P 1'
_cell_length_a   26.91814094
_cell_length_b   13.45907047
_cell_length_c   13.45907047
_cell_angle_alpha   60.00000000
_cell_angle_beta   120.00000000
_cell_angle_gamma   120.00000000
_symmetry_Int_Tables_number   1
_chemical_formula_structural   Li6I3N
_chemical_formula_sum   'Li96 I48 N16'
_cell_volume   3447.94396327
_cell_formula_units_Z   16
loop_
 _symmetry_equiv_pos_site_id
 _symmetry_equiv_pos_as_xyz
  1  'x, y, z'
loop_
 _atom_type_symbol
 _atom_type_oxidation_number
  Li+  1.0
  I-  -1.0
  N3-  -3.0
loop_
 _atom_site_type_symbol
 _atom_site_label
 _atom_site_symmetry_multiplicity
 _atom_site_fract_x
 _atom_site_fract_y
 _atom_site_fract_z
 _atom_site_occupancy
  Li+  Li0  1  0.18647500  0.06565000  0.68435000  1.0
  Li+  Li1  1  0.68863919  0.06620699  0.68387847  1.0
  Li+  Li2  1  0.43647500  0.06565000  0.18435000  1.0
  Li+  Li3  1  0.94010425  0.06421637  0.18571930  1.0
  Li+  Li4  1  0.18714335  0.37219468  0.81532519  1.0
  Li+  Li5  1  0.68647500  0.37295000  0.81565000  1.0
  Li+  Li6  1  0.43647500  0.87295000  0.31565000  1.0
  Li+  Li7  1  0.93647500  0.87295000  0.31565000  1.0
  Li+  Li8  1  0.43647500  0.37295000  0.81565000  1.0
  Li+  Li9  1  0.93647500  0.37295000  0.81565000  1.0
  Li+  Li10  1  0.43647500  0.43435000  0.12295000  1.0
  Li+  Li11  1  0.93647500  0.43435000  0.12295000  1.0
  Li+  Li12  1  0.18647500  0.87295000  0.68435000  1.0
  Li+  Li13  1  0.68706875  0.87143153  0.68225602  1.0
  Li+  Li14  1  0.43647500  0.37295000  0.18435000  1.0
  Li+  Li15  1  0.93647500  0.37295000  0.18435000  1.0
  Li+  Li16  1  0.18474202  0.93692057  0.31385214  1.0
  Li+  Li17  1  0.68647500  0.93435000  0.31565000  1.0
  Li+  Li18  1  0.18647500  0.06565000  0.12295000  1.0
  Li+  Li19  1  0.68647500  0.06565000  0.12295000  1.0
  Li+  Li20  1  0.43647500  0.06565000  0.62295000  1.0
  Li+  Li21  1  0.93125645  0.06471584  0.62439431  1.0
  Li+  Li22  1  0.28282500  0.37295000  0.87705000  1.0
  Li+  Li23  1  0.78449036  0.37413177  0.87644200  1.0
  Li+  Li24  1  0.21717500  0.93435000  0.87705000  1.0
  Li+  Li25  1  0.71717500  0.93435000  0.87705000  1.0
  Li+  Li26  1  0.21717500  0.43435000  0.87705000  1.0
  Li+  Li27  1  0.72023153  0.43076966  0.87814666  1.0
  Li+  Li28  1  0.46953708  0.93424766  0.37575114  1.0
  Li+  Li29  1  0.96621449  0.93981556  0.37381756  1.0
  Li+  Li30  1  0.06352500  0.56565000  0.87705000  1.0
  Li+  Li31  1  0.56352500  0.56565000  0.87705000  1.0
  Li+  Li32  1  0.03282500  0.06565000  0.87705000  1.0
  Li+  Li33  1  0.53282500  0.06565000  0.87705000  1.0
  Li+  Li34  1  0.28420037  0.56245516  0.37550369  1.0
  Li+  Li35  1  0.78282500  0.56565000  0.37705000  1.0
  Li+  Li36  1  0.28282500  0.06565000  0.37705000  1.0
  Li+  Li37  1  0.78282500  0.06565000  0.37705000  1.0
  Li+  Li38  1  0.46717500  0.37295000  0.37705000  1.0
  Li+  Li39  1  0.96858979  0.37177000  0.37937075  1.0
  Li+  Li40  1  0.46717500  0.37295000  0.87705000  1.0
  Li+  Li41  1  0.96717500  0.37295000  0.87705000  1.0
  Li+  Li42  1  0.21717500  0.62705000  0.12295000  1.0
  Li+  Li43  1  0.71717500  0.62705000  0.12295000  1.0
  Li+  Li44  1  0.46717500  0.62705000  0.62295000  1.0
  Li+  Li45  1  0.96717500  0.62705000  0.62295000  1.0
  Li+  Li46  1  0.46717500  0.12705000  0.12295000  1.0
  Li+  Li47  1  0.96717500  0.12705000  0.12295000  1.0
  Li+  Li48  1  0.31352500  0.62705000  0.68435000  1.0
  Li+  Li49  1  0.81352500  0.62705000  0.68435000  1.0
  Li+  Li50  1  0.03282500  0.62705000  0.31565000  1.0
  Li+  Li51  1  0.53282500  0.62705000  0.31565000  1.0
  Li+  Li52  1  0.06254012  0.12612613  0.31703123  1.0
  Li+  Li53  1  0.56352500  0.12705000  0.31565000  1.0
  Li+  Li54  1  0.31352500  0.12705000  0.31565000  1.0
  Li+  Li55  1  0.81601851  0.12533481  0.31624952  1.0
  Li+  Li56  1  0.03195675  0.63082366  0.62274152  1.0
  Li+  Li57  1  0.53282500  0.62705000  0.62295000  1.0
  Li+  Li58  1  0.28282500  0.62705000  0.12295000  1.0
  Li+  Li59  1  0.78282500  0.62705000  0.12295000  1.0
  Li+  Li60  1  0.21883599  0.63087889  0.68467914  1.0
  Li+  Li61  1  0.71717500  0.62705000  0.68435000  1.0
  Li+  Li62  1  0.46717500  0.62705000  0.68435000  1.0
  Li+  Li63  1  0.96717500  0.62705000  0.68435000  1.0
  Li+  Li64  1  0.46717500  0.12705000  0.68435000  1.0
  Li+  Li65  1  0.96804115  0.12914365  0.68386034  1.0
  Li+  Li66  1  0.46976581  0.62468349  0.18595386  1.0
  Li+  Li67  1  0.96717500  0.62705000  0.18435000  1.0
  Li+  Li68  1  0.06352500  0.93435000  0.31565000  1.0
  Li+  Li69  1  0.56352500  0.93435000  0.31565000  1.0
  Li+  Li70  1  0.06352500  0.43435000  0.31565000  1.0
  Li+  Li71  1  0.56210493  0.43147623  0.31494842  1.0
  Li+  Li72  1  0.06352500  0.43435000  0.81565000  1.0
  Li+  Li73  1  0.56352500  0.43435000  0.81565000  1.0
  Li+  Li74  1  0.31352500  0.43435000  0.31565000  1.0
  Li+  Li75  1  0.81352500  0.43435000  0.31565000  1.0
  Li+  Li76  1  0.28282500  0.06565000  0.62295000  1.0
  Li+  Li77  1  0.78282500  0.06565000  0.62295000  1.0
  Li+  Li78  1  0.28282500  0.56565000  0.12295000  1.0
  Li+  Li79  1  0.78282500  0.56565000  0.12295000  1.0
  Li+  Li80  1  0.21717500  0.87295000  0.68435000  1.0
  Li+  Li81  1  0.71717500  0.87295000  0.68435000  1.0
  Li+  Li82  1  0.21717500  0.37295000  0.68435000  1.0
  Li+  Li83  1  0.71876987  0.37178264  0.68801101  1.0
  Li+  Li84  1  0.21717500  0.37295000  0.18435000  1.0
  Li+  Li85  1  0.71882507  0.37243628  0.18343515  1.0
  Li+  Li86  1  0.46644719  0.37837566  0.18361209  1.0
  Li+  Li87  1  0.96717500  0.37295000  0.18435000  1.0
  Li+  Li88  1  0.21717500  0.93435000  0.12295000  1.0
  Li+  Li89  1  0.71717500  0.93435000  0.12295000  1.0
  Li+  Li90  1  0.21717500  0.43435000  0.12295000  1.0
  Li+  Li91  1  0.71717500  0.43435000  0.12295000  1.0
  Li+  Li92  1  0.46306856  0.93284310  0.12516131  1.0
  Li+  Li93  1  0.96857279  0.93514763  0.12497398  1.0
  Li+  Li94  1  0.06352500  0.06565000  0.68435000  1.0
  Li+  Li95  1  0.56352500  0.06565000  0.68435000  1.0
  I-  I96  1  0.12500000  0.75000000  0.50000000  1.0
  I-  I97  1  0.62500000  0.75000000  0.50000000  1.0
  I-  I98  1  0.11992572  0.25025608  0.49558194  1.0
  I-  I99  1  0.62500000  0.25000000  0.50000000  1.0
  I-  I100  1  0.12500000  0.75000000  0.00000000  1.0
  I-  I101  1  0.62500000  0.75000000  0.00000000  1.0
  I-  I102  1  0.12500000  0.25000000  0.00000000  1.0
  I-  I103  1  0.61762342  0.25634469  0.00221944  1.0
  I-  I104  1  0.37500000  0.75000000  0.50000000  1.0
  I-  I105  1  0.87279381  0.75122268  0.50266553  1.0
  I-  I106  1  0.37590676  0.24615517  0.50011894  1.0
  I-  I107  1  0.87500000  0.25000000  0.50000000  1.0
  I-  I108  1  0.37500000  0.75000000  0.00000000  1.0
  I-  I109  1  0.87500000  0.75000000  0.00000000  1.0
  I-  I110  1  0.37500000  0.25000000  0.00000000  1.0
  I-  I111  1  0.87500000  0.25000000  0.00000000  1.0
  I-  I112  1  0.06250000  0.87500000  0.62500000  1.0
  I-  I113  1  0.56250000  0.87500000  0.62500000  1.0
  I-  I114  1  0.06250000  0.37500000  0.62500000  1.0
  I-  I115  1  0.56250000  0.37500000  0.62500000  1.0
  I-  I116  1  0.06250000  0.87500000  0.12500000  1.0
  I-  I117  1  0.56347988  0.87322121  0.12691285  1.0
  I-  I118  1  0.05642994  0.37460258  0.12370586  1.0
  I-  I119  1  0.56208707  0.37439790  0.12729231  1.0
  I-  I120  1  0.31167891  0.87376990  0.62087417  1.0
  I-  I121  1  0.81250000  0.87500000  0.62500000  1.0
  I-  I122  1  0.31250000  0.37500000  0.62500000  1.0
  I-  I123  1  0.81250000  0.37500000  0.62500000  1.0
  I-  I124  1  0.31250000  0.87500000  0.12500000  1.0
  I-  I125  1  0.80795552  0.87297820  0.12795561  1.0
  I-  I126  1  0.31250000  0.37500000  0.12500000  1.0
  I-  I127  1  0.81265467  0.37555979  0.12648094  1.0
  I-  I128  1  0.18750000  0.62500000  0.37500000  1.0
  I-  I129  1  0.68750000  0.62500000  0.37500000  1.0
  I-  I130  1  0.18750000  0.12500000  0.37500000  1.0
  I-  I131  1  0.68750000  0.12500000  0.37500000  1.0
  I-  I132  1  0.18750000  0.62500000  0.87500000  1.0
  I-  I133  1  0.69027020  0.62432083  0.87279082  1.0
  I-  I134  1  0.18750000  0.12500000  0.87500000  1.0
  I-  I135  1  0.68750000  0.12500000  0.87500000  1.0
  I-  I136  1  0.43750000  0.62500000  0.37500000  1.0
  I-  I137  1  0.93750000  0.62500000  0.37500000  1.0
  I-  I138  1  0.43750000  0.12500000  0.37500000  1.0
  I-  I139  1  0.93750000  0.12500000  0.37500000  1.0
  I-  I140  1  0.44133308  0.62558297  0.87442430  1.0
  I-  I141  1  0.93750000  0.62500000  0.87500000  1.0
  I-  I142  1  0.43584779  0.12936542  0.87698406  1.0
  I-  I143  1  0.93546433  0.12745522  0.87629892  1.0
  N3-  N144  1  0.00000000  0.00000000  0.75000000  1.0
  N3-  N145  1  0.50000000  0.00000000  0.75000000  1.0
  N3-  N146  1  0.00000000  0.50000000  0.75000000  1.0
  N3-  N147  1  0.50000000  0.50000000  0.75000000  1.0
  N3-  N148  1  0.00000000  0.00000000  0.25000000  1.0
  N3-  N149  1  0.50000000  0.00000000  0.25000000  1.0
  N3-  N150  1  0.00000000  0.50000000  0.25000000  1.0
  N3-  N151  1  0.50388697  0.50502136  0.25090185  1.0
  N3-  N152  1  0.25000000  0.00000000  0.75000000  1.0
  N3-  N153  1  0.75235200  0.00336936  0.74868583  1.0
  N3-  N154  1  0.25000000  0.50000000  0.75000000  1.0
  N3-  N155  1  0.75000000  0.50000000  0.75000000  1.0
  N3-  N156  1  0.25000000  0.00000000  0.25000000  1.0
  N3-  N157  1  0.75000000  0.00000000  0.25000000  1.0
  N3-  N158  1  0.25000000  0.50000000  0.25000000  1.0
  N3-  N159  1  0.75000000  0.50000000  0.25000000  1.0
