# generated using pymatgen
data_Li6I3N
_symmetry_space_group_name_H-M   'P 1'
_cell_length_a   13.33696090
_cell_length_b   26.67392180
_cell_length_c   13.33696090
_cell_angle_alpha   120.00000000
_cell_angle_beta   120.00000000
_cell_angle_gamma   60.00000000
_symmetry_Int_Tables_number   1
_chemical_formula_structural   Li6I3N
_chemical_formula_sum   'Li96 I48 N16'
_cell_volume   3354.94675221
_cell_formula_units_Z   16
loop_
 _symmetry_equiv_pos_site_id
 _symmetry_equiv_pos_as_xyz
  1  'x, y, z'
loop_
 _atom_type_symbol
 _atom_type_oxidation_number
  Li+  1.0
  I-  -1.0
  N3-  -3.0
loop_
 _atom_site_type_symbol
 _atom_site_label
 _atom_site_symmetry_multiplicity
 _atom_site_fract_x
 _atom_site_fract_y
 _atom_site_fract_z
 _atom_site_occupancy
  Li+  Li0  1  0.93435000  0.48019167  0.93435000  1.0
  Li+  Li1  1  0.93435000  0.98019167  0.93435000  1.0
  Li+  Li2  1  0.43435000  0.23019167  0.93435000  1.0
  Li+  Li3  1  0.43435000  0.73019167  0.93435000  1.0
  Li+  Li4  1  0.06565000  0.48019167  0.62705000  1.0
  Li+  Li5  1  0.06565000  0.98019167  0.62705000  1.0
  Li+  Li6  1  0.56565000  0.23019167  0.12705000  1.0
  Li+  Li7  1  0.56565000  0.73019167  0.12705000  1.0
  Li+  Li8  1  0.06565000  0.23019167  0.62705000  1.0
  Li+  Li9  1  0.06565000  0.73019167  0.62705000  1.0
  Li+  Li10  1  0.37295000  0.23019167  0.56565000  1.0
  Li+  Li11  1  0.37295000  0.73019167  0.56565000  1.0
  Li+  Li12  1  0.93435000  0.48019167  0.12705000  1.0
  Li+  Li13  1  0.93435000  0.98019167  0.12705000  1.0
  Li+  Li14  1  0.43435000  0.23019167  0.62705000  1.0
  Li+  Li15  1  0.43435000  0.73019167  0.62705000  1.0
  Li+  Li16  1  0.56565000  0.48019167  0.06565000  1.0
  Li+  Li17  1  0.56565000  0.98019167  0.06565000  1.0
  Li+  Li18  1  0.37295000  0.48019167  0.93435000  1.0
  Li+  Li19  1  0.37295000  0.98019167  0.93435000  1.0
  Li+  Li20  1  0.87295000  0.23019167  0.93435000  1.0
  Li+  Li21  1  0.87295000  0.73019167  0.93435000  1.0
  Li+  Li22  1  0.12705000  0.38384167  0.62705000  1.0
  Li+  Li23  1  0.12705000  0.88384167  0.62705000  1.0
  Li+  Li24  1  0.12705000  0.44949167  0.06565000  1.0
  Li+  Li25  1  0.12705000  0.94949167  0.06565000  1.0
  Li+  Li26  1  0.12705000  0.44949167  0.56565000  1.0
  Li+  Li27  1  0.12705000  0.94949167  0.56565000  1.0
  Li+  Li28  1  0.62705000  0.19949167  0.06565000  1.0
  Li+  Li29  1  0.62705000  0.69949167  0.06565000  1.0
  Li+  Li30  1  0.12705000  0.60314167  0.43435000  1.0
  Li+  Li31  1  0.12705000  0.10314167  0.43435000  1.0
  Li+  Li32  1  0.12705000  0.63384167  0.93435000  1.0
  Li+  Li33  1  0.12705000  0.13384167  0.93435000  1.0
  Li+  Li34  1  0.62705000  0.38384167  0.43435000  1.0
  Li+  Li35  1  0.62705000  0.88384167  0.43435000  1.0
  Li+  Li36  1  0.62705000  0.38384167  0.93435000  1.0
  Li+  Li37  1  0.62705000  0.88384167  0.93435000  1.0
  Li+  Li38  1  0.62705000  0.19949167  0.62705000  1.0
  Li+  Li39  1  0.62705000  0.69949167  0.62705000  1.0
  Li+  Li40  1  0.12705000  0.19949167  0.62705000  1.0
  Li+  Li41  1  0.12705000  0.69949167  0.62705000  1.0
  Li+  Li42  1  0.37295000  0.44949167  0.37295000  1.0
  Li+  Li43  1  0.37295000  0.94949167  0.37295000  1.0
  Li+  Li44  1  0.87295000  0.19949167  0.37295000  1.0
  Li+  Li45  1  0.87295000  0.69949167  0.37295000  1.0
  Li+  Li46  1  0.37295000  0.19949167  0.87295000  1.0
  Li+  Li47  1  0.37295000  0.69949167  0.87295000  1.0
  Li+  Li48  1  0.93435000  0.35314167  0.37295000  1.0
  Li+  Li49  1  0.93435000  0.85314167  0.37295000  1.0
  Li+  Li50  1  0.56565000  0.63384167  0.37295000  1.0
  Li+  Li51  1  0.56565000  0.13384167  0.37295000  1.0
  Li+  Li52  1  0.56565000  0.60314167  0.87295000  1.0
  Li+  Li53  1  0.56565000  0.10314167  0.87295000  1.0
  Li+  Li54  1  0.56565000  0.35314167  0.87295000  1.0
  Li+  Li55  1  0.56565000  0.85314167  0.87295000  1.0
  Li+  Li56  1  0.87295000  0.63384167  0.37295000  1.0
  Li+  Li57  1  0.87295000  0.13384167  0.37295000  1.0
  Li+  Li58  1  0.37295000  0.38384167  0.37295000  1.0
  Li+  Li59  1  0.37295000  0.88384167  0.37295000  1.0
  Li+  Li60  1  0.93435000  0.44949167  0.37295000  1.0
  Li+  Li61  1  0.93435000  0.94949167  0.37295000  1.0
  Li+  Li62  1  0.93435000  0.19949167  0.37295000  1.0
  Li+  Li63  1  0.93435000  0.69949167  0.37295000  1.0
  Li+  Li64  1  0.93435000  0.19949167  0.87295000  1.0
  Li+  Li65  1  0.93435000  0.69949167  0.87295000  1.0
  Li+  Li66  1  0.43435000  0.19949167  0.37295000  1.0
  Li+  Li67  1  0.43435000  0.69949167  0.37295000  1.0
  Li+  Li68  1  0.56565000  0.60314167  0.06565000  1.0
  Li+  Li69  1  0.56565000  0.10314167  0.06565000  1.0
  Li+  Li70  1  0.56565000  0.60314167  0.56565000  1.0
  Li+  Li71  1  0.56565000  0.10314167  0.56565000  1.0
  Li+  Li72  1  0.06565000  0.60314167  0.56565000  1.0
  Li+  Li73  1  0.06565000  0.10314167  0.56565000  1.0
  Li+  Li74  1  0.56565000  0.35314167  0.56565000  1.0
  Li+  Li75  1  0.56565000  0.85314167  0.56565000  1.0
  Li+  Li76  1  0.87295000  0.38384167  0.93435000  1.0
  Li+  Li77  1  0.87295000  0.88384167  0.93435000  1.0
  Li+  Li78  1  0.37295000  0.38384167  0.43435000  1.0
  Li+  Li79  1  0.37295000  0.88384167  0.43435000  1.0
  Li+  Li80  1  0.93435000  0.44949167  0.12705000  1.0
  Li+  Li81  1  0.93435000  0.94949167  0.12705000  1.0
  Li+  Li82  1  0.93435000  0.44949167  0.62705000  1.0
  Li+  Li83  1  0.93435000  0.94949167  0.62705000  1.0
  Li+  Li84  1  0.43435000  0.44949167  0.62705000  1.0
  Li+  Li85  1  0.43435000  0.94949167  0.62705000  1.0
  Li+  Li86  1  0.43435000  0.19949167  0.62705000  1.0
  Li+  Li87  1  0.43435000  0.69949167  0.62705000  1.0
  Li+  Li88  1  0.37295000  0.44949167  0.06565000  1.0
  Li+  Li89  1  0.37295000  0.94949167  0.06565000  1.0
  Li+  Li90  1  0.37295000  0.44949167  0.56565000  1.0
  Li+  Li91  1  0.37295000  0.94949167  0.56565000  1.0
  Li+  Li92  1  0.37295000  0.19949167  0.06565000  1.0
  Li+  Li93  1  0.37295000  0.69949167  0.06565000  1.0
  Li+  Li94  1  0.93435000  0.60314167  0.93435000  1.0
  Li+  Li95  1  0.93435000  0.10314167  0.93435000  1.0
  I-  I96  1  0.75000000  0.54166667  0.25000000  1.0
  I-  I97  1  0.75000000  0.04166667  0.25000000  1.0
  I-  I98  1  0.75000000  0.54166667  0.75000000  1.0
  I-  I99  1  0.75000000  0.04166667  0.75000000  1.0
  I-  I100  1  0.25000000  0.54166667  0.25000000  1.0
  I-  I101  1  0.25000000  0.04166667  0.25000000  1.0
  I-  I102  1  0.25000000  0.54166667  0.75000000  1.0
  I-  I103  1  0.25000000  0.04166667  0.75000000  1.0
  I-  I104  1  0.75000000  0.29166667  0.25000000  1.0
  I-  I105  1  0.75000000  0.79166667  0.25000000  1.0
  I-  I106  1  0.75000000  0.29166667  0.75000000  1.0
  I-  I107  1  0.75000000  0.79166667  0.75000000  1.0
  I-  I108  1  0.25000000  0.29166667  0.25000000  1.0
  I-  I109  1  0.25000000  0.79166667  0.25000000  1.0
  I-  I110  1  0.25000000  0.29166667  0.75000000  1.0
  I-  I111  1  0.25000000  0.79166667  0.75000000  1.0
  I-  I112  1  0.87500000  0.60416667  0.12500000  1.0
  I-  I113  1  0.87500000  0.10416667  0.12500000  1.0
  I-  I114  1  0.87500000  0.60416667  0.62500000  1.0
  I-  I115  1  0.87500000  0.10416667  0.62500000  1.0
  I-  I116  1  0.37500000  0.60416667  0.12500000  1.0
  I-  I117  1  0.37500000  0.10416667  0.12500000  1.0
  I-  I118  1  0.37500000  0.60416667  0.62500000  1.0
  I-  I119  1  0.37500000  0.10416667  0.62500000  1.0
  I-  I120  1  0.87500000  0.35416667  0.12500000  1.0
  I-  I121  1  0.87500000  0.85416667  0.12500000  1.0
  I-  I122  1  0.87500000  0.35416667  0.62500000  1.0
  I-  I123  1  0.87500000  0.85416667  0.62500000  1.0
  I-  I124  1  0.37500000  0.35416667  0.12500000  1.0
  I-  I125  1  0.37500000  0.85416667  0.12500000  1.0
  I-  I126  1  0.37500000  0.35416667  0.62500000  1.0
  I-  I127  1  0.37500000  0.85416667  0.62500000  1.0
  I-  I128  1  0.62500000  0.47916667  0.37500000  1.0
  I-  I129  1  0.62500000  0.97916667  0.37500000  1.0
  I-  I130  1  0.62500000  0.47916667  0.87500000  1.0
  I-  I131  1  0.62500000  0.97916667  0.87500000  1.0
  I-  I132  1  0.12500000  0.47916667  0.37500000  1.0
  I-  I133  1  0.12500000  0.97916667  0.37500000  1.0
  I-  I134  1  0.12500000  0.47916667  0.87500000  1.0
  I-  I135  1  0.12500000  0.97916667  0.87500000  1.0
  I-  I136  1  0.62500000  0.22916667  0.37500000  1.0
  I-  I137  1  0.62500000  0.72916667  0.37500000  1.0
  I-  I138  1  0.62500000  0.22916667  0.87500000  1.0
  I-  I139  1  0.62500000  0.72916667  0.87500000  1.0
  I-  I140  1  0.12500000  0.22916667  0.37500000  1.0
  I-  I141  1  0.12500000  0.72916667  0.37500000  1.0
  I-  I142  1  0.12500000  0.22916667  0.87500000  1.0
  I-  I143  1  0.12500000  0.72916667  0.87500000  1.0
  N3-  N144  1  0.00000000  0.66666667  0.00000000  1.0
  N3-  N145  1  0.00000000  0.16666667  0.00000000  1.0
  N3-  N146  1  0.00000000  0.66666667  0.50000000  1.0
  N3-  N147  1  0.00000000  0.16666667  0.50000000  1.0
  N3-  N148  1  0.50000000  0.66666667  0.00000000  1.0
  N3-  N149  1  0.50000000  0.16666667  0.00000000  1.0
  N3-  N150  1  0.50000000  0.66666667  0.50000000  1.0
  N3-  N151  1  0.50000000  0.16666667  0.50000000  1.0
  N3-  N152  1  0.00000000  0.41666667  0.00000000  1.0
  N3-  N153  1  0.00000000  0.91666667  0.00000000  1.0
  N3-  N154  1  0.00000000  0.41666667  0.50000000  1.0
  N3-  N155  1  0.00000000  0.91666667  0.50000000  1.0
  N3-  N156  1  0.50000000  0.41666667  0.00000000  1.0
  N3-  N157  1  0.50000000  0.91666667  0.00000000  1.0
  N3-  N158  1  0.50000000  0.41666667  0.50000000  1.0
  N3-  N159  1  0.50000000  0.91666667  0.50000000  1.0
