# generated using pymatgen
data_Li6I3N
_symmetry_space_group_name_H-M   'P 1'
_cell_length_a   26.91814094
_cell_length_b   13.45907047
_cell_length_c   13.45907047
_cell_angle_alpha   60.00000000
_cell_angle_beta   60.00000000
_cell_angle_gamma   60.00000000
_symmetry_Int_Tables_number   1
_chemical_formula_structural   Li6I3N
_chemical_formula_sum   'Li96 I48 N16'
_cell_volume   3447.94396327
_cell_formula_units_Z   16
loop_
 _symmetry_equiv_pos_site_id
 _symmetry_equiv_pos_as_xyz
  1  'x, y, z'
loop_
 _atom_type_symbol
 _atom_type_oxidation_number
  Li+  1.0
  I-  -1.0
  N3-  -3.0
loop_
 _atom_site_type_symbol
 _atom_site_label
 _atom_site_symmetry_multiplicity
 _atom_site_fract_x
 _atom_site_fract_y
 _atom_site_fract_z
 _atom_site_occupancy
  Li+  Li0  1  0.18647500  0.06565000  0.93435000  1.0
  Li+  Li0  1  0.68647500  0.06565000  0.93435000  1.0
  Li+  Li1  1  0.43647500  0.56565000  0.93435000  1.0
  Li+  Li1  1  0.93647500  0.56565000  0.93435000  1.0
  Li+  Li2  1  0.18647500  0.93435000  0.62705000  1.0
  Li+  Li2  1  0.68647500  0.93435000  0.62705000  1.0
  Li+  Li3  1  0.43647500  0.43435000  0.12705000  1.0
  Li+  Li3  1  0.93647500  0.43435000  0.12705000  1.0
  Li+  Li4  1  0.43647500  0.93435000  0.62705000  1.0
  Li+  Li4  1  0.93647500  0.93435000  0.62705000  1.0
  Li+  Li5  1  0.43647500  0.62705000  0.56565000  1.0
  Li+  Li5  1  0.93647500  0.62705000  0.56565000  1.0
  Li+  Li6  1  0.18647500  0.06565000  0.12705000  1.0
  Li+  Li6  1  0.68647500  0.06565000  0.12705000  1.0
  Li+  Li7  1  0.43647500  0.56565000  0.62705000  1.0
  Li+  Li7  1  0.93647500  0.56565000  0.62705000  1.0
  Li+  Li8  1  0.18647500  0.43435000  0.06565000  1.0
  Li+  Li8  1  0.68647500  0.43435000  0.06565000  1.0
  Li+  Li9  1  0.18647500  0.62705000  0.93435000  1.0
  Li+  Li9  1  0.68647500  0.62705000  0.93435000  1.0
  Li+  Li10  1  0.43647500  0.12705000  0.93435000  1.0
  Li+  Li10  1  0.93647500  0.12705000  0.93435000  1.0
  Li+  Li11  1  0.28282500  0.87295000  0.62705000  1.0
  Li+  Li11  1  0.78282500  0.87295000  0.62705000  1.0
  Li+  Li12  1  0.21717500  0.87295000  0.06565000  1.0
  Li+  Li12  1  0.71717500  0.87295000  0.06565000  1.0
  Li+  Li13  1  0.21717500  0.87295000  0.56565000  1.0
  Li+  Li13  1  0.71717500  0.87295000  0.56565000  1.0
  Li+  Li14  1  0.46717500  0.37295000  0.06565000  1.0
  Li+  Li14  1  0.96717500  0.37295000  0.06565000  1.0
  Li+  Li15  1  0.06352500  0.87295000  0.43435000  1.0
  Li+  Li15  1  0.56352500  0.87295000  0.43435000  1.0
  Li+  Li16  1  0.03282500  0.87295000  0.93435000  1.0
  Li+  Li16  1  0.53282500  0.87295000  0.93435000  1.0
  Li+  Li17  1  0.28282500  0.37295000  0.43435000  1.0
  Li+  Li17  1  0.78282500  0.37295000  0.43435000  1.0
  Li+  Li18  1  0.28282500  0.37295000  0.93435000  1.0
  Li+  Li18  1  0.78282500  0.37295000  0.93435000  1.0
  Li+  Li19  1  0.46717500  0.37295000  0.62705000  1.0
  Li+  Li19  1  0.96717500  0.37295000  0.62705000  1.0
  Li+  Li20  1  0.46717500  0.87295000  0.62705000  1.0
  Li+  Li20  1  0.96717500  0.87295000  0.62705000  1.0
  Li+  Li21  1  0.21717500  0.62705000  0.37295000  1.0
  Li+  Li21  1  0.71717500  0.62705000  0.37295000  1.0
  Li+  Li22  1  0.46717500  0.12705000  0.37295000  1.0
  Li+  Li22  1  0.96717500  0.12705000  0.37295000  1.0
  Li+  Li23  1  0.46717500  0.62705000  0.87295000  1.0
  Li+  Li23  1  0.96717500  0.62705000  0.87295000  1.0
  Li+  Li24  1  0.31352500  0.06565000  0.37295000  1.0
  Li+  Li24  1  0.81352500  0.06565000  0.37295000  1.0
  Li+  Li25  1  0.03282500  0.43435000  0.37295000  1.0
  Li+  Li25  1  0.53282500  0.43435000  0.37295000  1.0
  Li+  Li26  1  0.06352500  0.43435000  0.87295000  1.0
  Li+  Li26  1  0.56352500  0.43435000  0.87295000  1.0
  Li+  Li27  1  0.31352500  0.43435000  0.87295000  1.0
  Li+  Li27  1  0.81352500  0.43435000  0.87295000  1.0
  Li+  Li28  1  0.03282500  0.12705000  0.37295000  1.0
  Li+  Li28  1  0.53282500  0.12705000  0.37295000  1.0
  Li+  Li29  1  0.28282500  0.62705000  0.37295000  1.0
  Li+  Li29  1  0.78282500  0.62705000  0.37295000  1.0
  Li+  Li30  1  0.21717500  0.06565000  0.37295000  1.0
  Li+  Li30  1  0.71717500  0.06565000  0.37295000  1.0
  Li+  Li31  1  0.46717500  0.06565000  0.37295000  1.0
  Li+  Li31  1  0.96717500  0.06565000  0.37295000  1.0
  Li+  Li32  1  0.46717500  0.06565000  0.87295000  1.0
  Li+  Li32  1  0.96717500  0.06565000  0.87295000  1.0
  Li+  Li33  1  0.46717500  0.56565000  0.37295000  1.0
  Li+  Li33  1  0.96717500  0.56565000  0.37295000  1.0
  Li+  Li34  1  0.06352500  0.43435000  0.06565000  1.0
  Li+  Li34  1  0.56352500  0.43435000  0.06565000  1.0
  Li+  Li35  1  0.06352500  0.43435000  0.56565000  1.0
  Li+  Li35  1  0.56352500  0.43435000  0.56565000  1.0
  Li+  Li36  1  0.06352500  0.93435000  0.56565000  1.0
  Li+  Li36  1  0.56352500  0.93435000  0.56565000  1.0
  Li+  Li37  1  0.31352500  0.43435000  0.56565000  1.0
  Li+  Li37  1  0.81352500  0.43435000  0.56565000  1.0
  Li+  Li38  1  0.28282500  0.12705000  0.93435000  1.0
  Li+  Li38  1  0.78282500  0.12705000  0.93435000  1.0
  Li+  Li39  1  0.28282500  0.62705000  0.43435000  1.0
  Li+  Li39  1  0.78282500  0.62705000  0.43435000  1.0
  Li+  Li40  1  0.21717500  0.06565000  0.12705000  1.0
  Li+  Li40  1  0.71717500  0.06565000  0.12705000  1.0
  Li+  Li41  1  0.21717500  0.06565000  0.62705000  1.0
  Li+  Li41  1  0.71717500  0.06565000  0.62705000  1.0
  Li+  Li42  1  0.21717500  0.56565000  0.62705000  1.0
  Li+  Li42  1  0.71717500  0.56565000  0.62705000  1.0
  Li+  Li43  1  0.46717500  0.56565000  0.62705000  1.0
  Li+  Li43  1  0.96717500  0.56565000  0.62705000  1.0
  Li+  Li44  1  0.21717500  0.62705000  0.06565000  1.0
  Li+  Li44  1  0.71717500  0.62705000  0.06565000  1.0
  Li+  Li45  1  0.21717500  0.62705000  0.56565000  1.0
  Li+  Li45  1  0.71717500  0.62705000  0.56565000  1.0
  Li+  Li46  1  0.46717500  0.62705000  0.06565000  1.0
  Li+  Li46  1  0.96717500  0.62705000  0.06565000  1.0
  Li+  Li47  1  0.06352500  0.06565000  0.93435000  1.0
  Li+  Li47  1  0.56352500  0.06565000  0.93435000  1.0
  I-  I1  1  0.12500000  0.25000000  0.25000000  1.0
  I-  I1  1  0.62500000  0.25000000  0.25000000  1.0
  I-  I1  1  0.12500000  0.25000000  0.75000000  1.0
  I-  I1  1  0.62500000  0.25000000  0.75000000  1.0
  I-  I1  1  0.12500000  0.75000000  0.25000000  1.0
  I-  I1  1  0.62500000  0.75000000  0.25000000  1.0
  I-  I1  1  0.12500000  0.75000000  0.75000000  1.0
  I-  I1  1  0.62500000  0.75000000  0.75000000  1.0
  I-  I1  1  0.37500000  0.25000000  0.25000000  1.0
  I-  I1  1  0.87500000  0.25000000  0.25000000  1.0
  I-  I1  1  0.37500000  0.25000000  0.75000000  1.0
  I-  I1  1  0.87500000  0.25000000  0.75000000  1.0
  I-  I1  1  0.37500000  0.75000000  0.25000000  1.0
  I-  I1  1  0.87500000  0.75000000  0.25000000  1.0
  I-  I1  1  0.37500000  0.75000000  0.75000000  1.0
  I-  I1  1  0.87500000  0.75000000  0.75000000  1.0
  I-  I2  1  0.06250000  0.12500000  0.12500000  1.0
  I-  I2  1  0.56250000  0.12500000  0.12500000  1.0
  I-  I2  1  0.06250000  0.12500000  0.62500000  1.0
  I-  I2  1  0.56250000  0.12500000  0.62500000  1.0
  I-  I2  1  0.06250000  0.62500000  0.12500000  1.0
  I-  I2  1  0.56250000  0.62500000  0.12500000  1.0
  I-  I2  1  0.06250000  0.62500000  0.62500000  1.0
  I-  I2  1  0.56250000  0.62500000  0.62500000  1.0
  I-  I2  1  0.31250000  0.12500000  0.12500000  1.0
  I-  I2  1  0.81250000  0.12500000  0.12500000  1.0
  I-  I2  1  0.31250000  0.12500000  0.62500000  1.0
  I-  I2  1  0.81250000  0.12500000  0.62500000  1.0
  I-  I2  1  0.31250000  0.62500000  0.12500000  1.0
  I-  I2  1  0.81250000  0.62500000  0.12500000  1.0
  I-  I2  1  0.31250000  0.62500000  0.62500000  1.0
  I-  I2  1  0.81250000  0.62500000  0.62500000  1.0
  I-  I2  1  0.18750000  0.37500000  0.37500000  1.0
  I-  I2  1  0.68750000  0.37500000  0.37500000  1.0
  I-  I2  1  0.18750000  0.37500000  0.87500000  1.0
  I-  I2  1  0.68750000  0.37500000  0.87500000  1.0
  I-  I2  1  0.18750000  0.87500000  0.37500000  1.0
  I-  I2  1  0.68750000  0.87500000  0.37500000  1.0
  I-  I2  1  0.18750000  0.87500000  0.87500000  1.0
  I-  I2  1  0.68750000  0.87500000  0.87500000  1.0
  I-  I2  1  0.43750000  0.37500000  0.37500000  1.0
  I-  I2  1  0.93750000  0.37500000  0.37500000  1.0
  I-  I2  1  0.43750000  0.37500000  0.87500000  1.0
  I-  I2  1  0.93750000  0.37500000  0.87500000  1.0
  I-  I2  1  0.43750000  0.87500000  0.37500000  1.0
  I-  I2  1  0.93750000  0.87500000  0.37500000  1.0
  I-  I2  1  0.43750000  0.87500000  0.87500000  1.0
  I-  I2  1  0.93750000  0.87500000  0.87500000  1.0
  N3-  N1  1  0.00000000  0.00000000  0.00000000  1.0
  N3-  N1  1  0.50000000  0.00000000  0.00000000  1.0
  N3-  N1  1  0.00000000  0.00000000  0.50000000  1.0
  N3-  N1  1  0.50000000  0.00000000  0.50000000  1.0
  N3-  N1  1  0.00000000  0.50000000  0.00000000  1.0
  N3-  N1  1  0.50000000  0.50000000  0.00000000  1.0
  N3-  N1  1  0.00000000  0.50000000  0.50000000  1.0
  N3-  N1  1  0.50000000  0.50000000  0.50000000  1.0
  N3-  N1  1  0.25000000  0.00000000  0.00000000  1.0
  N3-  N1  1  0.75000000  0.00000000  0.00000000  1.0
  N3-  N1  1  0.25000000  0.00000000  0.50000000  1.0
  N3-  N1  1  0.75000000  0.00000000  0.50000000  1.0
  N3-  N1  1  0.25000000  0.50000000  0.00000000  1.0
  N3-  N1  1  0.75000000  0.50000000  0.00000000  1.0
  N3-  N1  1  0.25000000  0.50000000  0.50000000  1.0
  N3-  N1  1  0.75000000  0.50000000  0.50000000  1.0
