# generated using pymatgen
data_Li3Ta4SiPO16
_symmetry_space_group_name_H-M   'P 1'
_cell_length_a   15.11484707
_cell_length_b   10.68000000
_cell_length_c   7.55742354
_cell_angle_alpha   90.09020662
_cell_angle_beta   80.23142098
_cell_angle_gamma   89.90979338
_symmetry_Int_Tables_number   1
_chemical_formula_structural   Li3Ta4SiPO16
_chemical_formula_sum   'Li12 Ta16 Si4 P4 O64'
_cell_volume   1202.27713012
_cell_formula_units_Z   4
loop_
 _symmetry_equiv_pos_site_id
 _symmetry_equiv_pos_as_xyz
  1  'x, y, z'
loop_
 _atom_type_symbol
 _atom_type_oxidation_number
  Li+  1.0
  Ta5+  5.0
  Si4+  4.0
  P5+  5.0
  O2-  -2.0
loop_
 _atom_site_type_symbol
 _atom_site_label
 _atom_site_symmetry_multiplicity
 _atom_site_fract_x
 _atom_site_fract_y
 _atom_site_fract_z
 _atom_site_occupancy
  Li+  Li0  1  0.25000000  0.50000000  0.25000000  1.0
  Li+  Li1  1  0.25082224  0.60065799  0.02617108  1.0
  Li+  Li2  1  0.36465239  0.09977212  0.25455648  1.0
  Li+  Li3  1  0.86250000  0.10000000  0.25100000  1.0
  Li+  Li4  1  0.75044336  0.39515444  0.47770817  1.0
  Li+  Li5  1  0.05661956  0.64296119  0.35290325  1.0
  Li+  Li6  1  0.55229792  0.64075670  0.34966248  1.0
  Li+  Li7  1  0.30100000  0.86000000  0.86200000  1.0
  Li+  Li8  1  0.80100000  0.86000000  0.86200000  1.0
  Li+  Li9  1  0.44400000  0.36000000  0.14800000  1.0
  Li+  Li10  1  0.94400000  0.36000000  0.14800000  1.0
  Li+  Li11  1  0.19900000  0.14000000  0.63800000  1.0
  Ta5+  Ta12  1  0.42600000  0.75600000  0.09400000  1.0
  Ta5+  Ta13  1  0.92687017  0.75672787  0.09204186  1.0
  Ta5+  Ta14  1  0.17200000  0.74400000  0.60200000  1.0
  Ta5+  Ta15  1  0.67200000  0.74400000  0.60200000  1.0
  Ta5+  Ta16  1  0.07400000  0.24400000  0.40600000  1.0
  Ta5+  Ta17  1  0.57364654  0.24418288  0.40611976  1.0
  Ta5+  Ta18  1  0.33098434  0.25846577  0.89496719  1.0
  Ta5+  Ta19  1  0.82800000  0.25600000  0.89800000  1.0
  Ta5+  Ta20  1  0.17650000  0.75000000  0.10300000  1.0
  Ta5+  Ta21  1  0.67368470  0.75131076  0.10326038  1.0
  Ta5+  Ta22  1  0.32599155  0.25464876  0.39798268  1.0
  Ta5+  Ta23  1  0.81814993  0.25047579  0.39540457  1.0
  Ta5+  Ta24  1  0.00399726  0.50035517  0.75195583  1.0
  Ta5+  Ta25  1  0.50000000  0.50000000  0.75000000  1.0
  Ta5+  Ta26  1  0.00000000  0.00000000  0.75000000  1.0
  Ta5+  Ta27  1  0.50000000  0.00000000  0.75000000  1.0
  Si4+  Si28  1  0.35800000  0.56100000  0.44400000  1.0
  Si4+  Si29  1  0.85800000  0.56100000  0.44400000  1.0
  Si4+  Si30  1  0.34700000  0.93900000  0.46600000  1.0
  Si4+  Si31  1  0.14580482  0.43804071  0.05901275  1.0
  P5+  P32  1  0.84700000  0.93900000  0.46600000  1.0
  P5+  P33  1  0.63799270  0.43688934  0.05862433  1.0
  P5+  P34  1  0.15300000  0.06100000  0.03400000  1.0
  P5+  P35  1  0.65300000  0.06100000  0.03400000  1.0
  O2-  O36  1  0.14150000  0.56600000  0.14900000  1.0
  O2-  O37  1  0.64118586  0.56825320  0.14954499  1.0
  O2-  O38  1  0.19950000  0.93400000  0.03300000  1.0
  O2-  O39  1  0.69950000  0.93400000  0.03300000  1.0
  O2-  O40  1  0.35672379  0.43390534  0.35210160  1.0
  O2-  O41  1  0.85850000  0.43400000  0.35100000  1.0
  O2-  O42  1  0.30050000  0.06600000  0.46700000  1.0
  O2-  O43  1  0.80050000  0.06600000  0.46700000  1.0
  O2-  O44  1  0.38000000  0.89900000  0.25800000  1.0
  O2-  O45  1  0.88000000  0.89900000  0.25800000  1.0
  O2-  O46  1  0.25448123  0.59856405  0.50882450  1.0
  O2-  O47  1  0.75400000  0.60100000  0.51000000  1.0
  O2-  O48  1  0.12000000  0.10100000  0.24200000  1.0
  O2-  O49  1  0.62000000  0.10100000  0.24200000  1.0
  O2-  O50  1  0.24600000  0.39900000  0.99000000  1.0
  O2-  O51  1  0.74600000  0.39900000  0.99000000  1.0
  O2-  O52  1  0.07600000  0.62500000  0.63200000  1.0
  O2-  O53  1  0.57600000  0.62500000  0.63200000  1.0
  O2-  O54  1  0.44100000  0.87500000  0.90200000  1.0
  O2-  O55  1  0.94100000  0.87500000  0.90200000  1.0
  O2-  O56  1  0.42400000  0.37500000  0.86800000  1.0
  O2-  O57  1  0.92400000  0.37500000  0.86800000  1.0
  O2-  O58  1  0.05900000  0.12500000  0.59800000  1.0
  O2-  O59  1  0.55900000  0.12500000  0.59800000  1.0
  O2-  O60  1  0.06000000  0.06100000  0.96600000  1.0
  O2-  O61  1  0.56000000  0.06100000  0.96600000  1.0
  O2-  O62  1  0.10954663  0.43874852  0.87184011  1.0
  O2-  O63  1  0.60800000  0.43900000  0.87000000  1.0
  O2-  O64  1  0.44000000  0.93900000  0.53400000  1.0
  O2-  O65  1  0.94000000  0.93900000  0.53400000  1.0
  O2-  O66  1  0.39034990  0.56400584  0.63081429  1.0
  O2-  O67  1  0.89200000  0.56100000  0.63000000  1.0
  O2-  O68  1  0.04600000  0.78400000  0.13600000  1.0
  O2-  O69  1  0.54589602  0.77992824  0.13785070  1.0
  O2-  O70  1  0.19300000  0.71600000  0.84200000  1.0
  O2-  O71  1  0.69300000  0.71600000  0.84200000  1.0
  O2-  O72  1  0.45400000  0.21600000  0.36400000  1.0
  O2-  O73  1  0.95400000  0.21600000  0.36400000  1.0
  O2-  O74  1  0.30700000  0.28400000  0.65800000  1.0
  O2-  O75  1  0.80700000  0.28400000  0.65800000  1.0
  O2-  O76  1  0.45800000  0.61400000  0.94800000  1.0
  O2-  O77  1  0.95800000  0.61400000  0.94800000  1.0
  O2-  O78  1  0.10005403  0.88741329  0.66965129  1.0
  O2-  O79  1  0.59900000  0.88600000  0.66600000  1.0
  O2-  O80  1  0.04208443  0.38462348  0.54943291  1.0
  O2-  O81  1  0.54200000  0.38600000  0.55200000  1.0
  O2-  O82  1  0.40102608  0.11871466  0.83338075  1.0
  O2-  O83  1  0.90100000  0.11400000  0.83400000  1.0
  O2-  O84  1  0.41750000  0.65700000  0.32700000  1.0
  O2-  O85  1  0.91750000  0.65700000  0.32700000  1.0
  O2-  O86  1  0.28850000  0.84300000  0.58500000  1.0
  O2-  O87  1  0.78850000  0.84300000  0.58500000  1.0
  O2-  O88  1  0.08225317  0.34220936  0.17569927  1.0
  O2-  O89  1  0.58250000  0.34300000  0.17300000  1.0
  O2-  O90  1  0.21150000  0.15700000  0.91500000  1.0
  O2-  O91  1  0.71150000  0.15700000  0.91500000  1.0
  O2-  O92  1  0.16350000  0.78800000  0.34500000  1.0
  O2-  O93  1  0.66350000  0.78800000  0.34500000  1.0
  O2-  O94  1  0.29514651  0.71214241  0.08058980  1.0
  O2-  O95  1  0.79750000  0.71200000  0.07700000  1.0
  O2-  O96  1  0.33650000  0.21200000  0.15500000  1.0
  O2-  O97  1  0.83650000  0.21200000  0.15500000  1.0
  O2-  O98  1  0.20250000  0.28800000  0.42300000  1.0
  O2-  O99  1  0.70250000  0.28800000  0.42300000  1.0
