# generated using pymatgen
data_Li3Ta4SiPO16
_symmetry_space_group_name_H-M   'P 1'
_cell_length_a   7.58236782
_cell_length_b   15.16473563
_cell_length_c   10.71525076
_cell_angle_alpha   89.90979338
_cell_angle_beta   89.90979338
_cell_angle_gamma   99.76857902
_symmetry_Int_Tables_number   1
_chemical_formula_structural   Li3Ta4SiPO16
_chemical_formula_sum   'Li12 Ta16 Si4 P4 O64'
_cell_volume   1214.22129299
_cell_formula_units_Z   4
loop_
 _symmetry_equiv_pos_site_id
 _symmetry_equiv_pos_as_xyz
  1  'x, y, z'
loop_
 _atom_type_symbol
 _atom_type_oxidation_number
  Li+  1.0
  Ta5+  5.0
  Si4+  4.0
  P5+  5.0
  O2-  -2.0
loop_
 _atom_site_type_symbol
 _atom_site_label
 _atom_site_symmetry_multiplicity
 _atom_site_fract_x
 _atom_site_fract_y
 _atom_site_fract_z
 _atom_site_occupancy
  Li+  Li0  1  0.50000000  0.41666667  0.50000000  1.0
  Li+  Li1  1  0.27500000  0.41716667  0.40000000  1.0
  Li+  Li2  1  0.50100000  0.30416667  0.90000000  1.0
  Li+  Li3  1  0.50100000  0.80416667  0.90000000  1.0
  Li+  Li4  1  0.72500000  0.91616667  0.60000000  1.0
  Li+  Li5  1  0.60200000  0.61066667  0.36000000  1.0
  Li+  Li6  1  0.60200000  0.11066667  0.36000000  1.0
  Li+  Li7  1  0.11200000  0.36566667  0.14000000  1.0
  Li+  Li8  1  0.11200000  0.86566667  0.14000000  1.0
  Li+  Li9  1  0.39800000  0.22266667  0.64000000  1.0
  Li+  Li10  1  0.39800000  0.72266667  0.64000000  1.0
  Li+  Li11  1  0.88800000  0.46766667  0.86000000  1.0
  Ta5+  Ta12  1  0.34400000  0.24066667  0.24400000  1.0
  Ta5+  Ta13  1  0.34400000  0.74066667  0.24400000  1.0
  Ta5+  Ta14  1  0.85200000  0.49466667  0.25600000  1.0
  Ta5+  Ta15  1  0.85200000  0.99466667  0.25600000  1.0
  Ta5+  Ta16  1  0.65600000  0.59266667  0.75600000  1.0
  Ta5+  Ta17  1  0.65600000  0.09266667  0.75600000  1.0
  Ta5+  Ta18  1  0.14800000  0.33866667  0.74400000  1.0
  Ta5+  Ta19  1  0.14800000  0.83866667  0.74400000  1.0
  Ta5+  Ta20  1  0.35300000  0.49016667  0.25000000  1.0
  Ta5+  Ta21  1  0.35300000  0.99016667  0.25000000  1.0
  Ta5+  Ta22  1  0.64700000  0.34316667  0.75000000  1.0
  Ta5+  Ta23  1  0.64700000  0.84316667  0.75000000  1.0
  Ta5+  Ta24  1  0.00000000  0.66666667  0.50000000  1.0
  Ta5+  Ta25  1  0.00000000  0.16666667  0.50000000  1.0
  Ta5+  Ta26  1  0.00000000  0.66666667  0.00000000  1.0
  Ta5+  Ta27  1  0.00000000  0.16666667  0.00000000  1.0
  Si4+  Si28  1  0.69400000  0.30866667  0.43900000  1.0
  Si4+  Si29  1  0.69400000  0.80866667  0.43900000  1.0
  Si4+  Si30  1  0.71600000  0.31966667  0.06100000  1.0
  Si4+  Si31  1  0.30600000  0.52466667  0.56100000  1.0
  P5+  P32  1  0.71600000  0.81966667  0.06100000  1.0
  P5+  P33  1  0.30600000  0.02466667  0.56100000  1.0
  P5+  P34  1  0.28400000  0.51366667  0.93900000  1.0
  P5+  P35  1  0.28400000  0.01366667  0.93900000  1.0
  O2-  O36  1  0.39900000  0.52516667  0.43400000  1.0
  O2-  O37  1  0.39900000  0.02516667  0.43400000  1.0
  O2-  O38  1  0.28300000  0.46716667  0.06600000  1.0
  O2-  O39  1  0.28300000  0.96716667  0.06600000  1.0
  O2-  O40  1  0.60100000  0.30816667  0.56600000  1.0
  O2-  O41  1  0.60100000  0.80816667  0.56600000  1.0
  O2-  O42  1  0.71700000  0.36616667  0.93400000  1.0
  O2-  O43  1  0.71700000  0.86616667  0.93400000  1.0
  O2-  O44  1  0.50800000  0.28666667  0.10100000  1.0
  O2-  O45  1  0.50800000  0.78666667  0.10100000  1.0
  O2-  O46  1  0.76000000  0.41266667  0.39900000  1.0
  O2-  O47  1  0.76000000  0.91266667  0.39900000  1.0
  O2-  O48  1  0.49200000  0.54666667  0.89900000  1.0
  O2-  O49  1  0.49200000  0.04666667  0.89900000  1.0
  O2-  O50  1  0.24000000  0.42066667  0.60100000  1.0
  O2-  O51  1  0.24000000  0.92066667  0.60100000  1.0
  O2-  O52  1  0.88200000  0.59066667  0.37500000  1.0
  O2-  O53  1  0.88200000  0.09066667  0.37500000  1.0
  O2-  O54  1  0.15200000  0.22566667  0.12500000  1.0
  O2-  O55  1  0.15200000  0.72566667  0.12500000  1.0
  O2-  O56  1  0.11800000  0.24266667  0.62500000  1.0
  O2-  O57  1  0.11800000  0.74266667  0.62500000  1.0
  O2-  O58  1  0.84800000  0.60766667  0.87500000  1.0
  O2-  O59  1  0.84800000  0.10766667  0.87500000  1.0
  O2-  O60  1  0.21600000  0.60666667  0.93900000  1.0
  O2-  O61  1  0.21600000  0.10666667  0.93900000  1.0
  O2-  O62  1  0.12000000  0.55866667  0.56100000  1.0
  O2-  O63  1  0.12000000  0.05866667  0.56100000  1.0
  O2-  O64  1  0.78400000  0.22666667  0.06100000  1.0
  O2-  O65  1  0.78400000  0.72666667  0.06100000  1.0
  O2-  O66  1  0.88000000  0.27466667  0.43900000  1.0
  O2-  O67  1  0.88000000  0.77466667  0.43900000  1.0
  O2-  O68  1  0.38600000  0.62066667  0.21600000  1.0
  O2-  O69  1  0.38600000  0.12066667  0.21600000  1.0
  O2-  O70  1  0.09200000  0.47366667  0.28400000  1.0
  O2-  O71  1  0.09200000  0.97366667  0.28400000  1.0
  O2-  O72  1  0.61400000  0.21266667  0.78400000  1.0
  O2-  O73  1  0.61400000  0.71266667  0.78400000  1.0
  O2-  O74  1  0.90800000  0.35966667  0.71600000  1.0
  O2-  O75  1  0.90800000  0.85966667  0.71600000  1.0
  O2-  O76  1  0.19800000  0.20866667  0.38600000  1.0
  O2-  O77  1  0.19800000  0.70866667  0.38600000  1.0
  O2-  O78  1  0.91600000  0.56766667  0.11400000  1.0
  O2-  O79  1  0.91600000  0.06766667  0.11400000  1.0
  O2-  O80  1  0.80200000  0.62466667  0.61400000  1.0
  O2-  O81  1  0.80200000  0.12466667  0.61400000  1.0
  O2-  O82  1  0.08400000  0.26566667  0.88600000  1.0
  O2-  O83  1  0.08400000  0.76566667  0.88600000  1.0
  O2-  O84  1  0.57700000  0.24916667  0.34300000  1.0
  O2-  O85  1  0.57700000  0.74916667  0.34300000  1.0
  O2-  O86  1  0.83500000  0.37816667  0.15700000  1.0
  O2-  O87  1  0.83500000  0.87816667  0.15700000  1.0
  O2-  O88  1  0.42300000  0.58416667  0.65700000  1.0
  O2-  O89  1  0.42300000  0.08416667  0.65700000  1.0
  O2-  O90  1  0.16500000  0.45516667  0.84300000  1.0
  O2-  O91  1  0.16500000  0.95516667  0.84300000  1.0
  O2-  O92  1  0.59500000  0.50316667  0.21200000  1.0
  O2-  O93  1  0.59500000  0.00316667  0.21200000  1.0
  O2-  O94  1  0.32700000  0.36916667  0.28800000  1.0
  O2-  O95  1  0.32700000  0.86916667  0.28800000  1.0
  O2-  O96  1  0.40500000  0.33016667  0.78800000  1.0
  O2-  O97  1  0.40500000  0.83016667  0.78800000  1.0
  O2-  O98  1  0.67300000  0.46416667  0.71200000  1.0
  O2-  O99  1  0.67300000  0.96416667  0.71200000  1.0
