# generated using pymatgen
data_Li3Ta4SiPO16
_symmetry_space_group_name_H-M   'P 1'
_cell_length_a   15.11484707
_cell_length_b   7.55742354
_cell_length_c   10.68000000
_cell_angle_alpha   90.09020662
_cell_angle_beta   90.09020662
_cell_angle_gamma   99.76857902
_symmetry_Int_Tables_number   1
_chemical_formula_structural   Li3Ta4SiPO16
_chemical_formula_sum   'Li12 Ta16 Si4 P4 O64'
_cell_volume   1202.27713012
_cell_formula_units_Z   4
loop_
 _symmetry_equiv_pos_site_id
 _symmetry_equiv_pos_as_xyz
  1  'x, y, z'
loop_
 _atom_type_symbol
 _atom_type_oxidation_number
  Li+  1.0
  Ta5+  5.0
  Si4+  4.0
  P5+  5.0
  O2-  -2.0
loop_
 _atom_site_type_symbol
 _atom_site_label
 _atom_site_symmetry_multiplicity
 _atom_site_fract_x
 _atom_site_fract_y
 _atom_site_fract_z
 _atom_site_occupancy
  Li+  Li0  1  0.25000000  0.50000000  0.50000000  1.0
  Li+  Li1  1  0.24950000  0.72500000  0.40000000  1.0
  Li+  Li2  1  0.36250000  0.49900000  0.90000000  1.0
  Li+  Li3  1  0.86250000  0.49900000  0.90000000  1.0
  Li+  Li4  1  0.75050000  0.27500000  0.60000000  1.0
  Li+  Li5  1  0.05600000  0.39800000  0.36000000  1.0
  Li+  Li6  1  0.55600000  0.39800000  0.36000000  1.0
  Li+  Li7  1  0.30100000  0.88800000  0.14000000  1.0
  Li+  Li8  1  0.80100000  0.88800000  0.14000000  1.0
  Li+  Li9  1  0.44400000  0.60200000  0.64000000  1.0
  Li+  Li10  1  0.94400000  0.60200000  0.64000000  1.0
  Li+  Li11  1  0.19900000  0.11200000  0.86000000  1.0
  Ta5+  Ta1  1  0.42600000  0.65600000  0.24400000  1.0
  Ta5+  Ta1  1  0.92600000  0.65600000  0.24400000  1.0
  Ta5+  Ta1  1  0.17200000  0.14800000  0.25600000  1.0
  Ta5+  Ta1  1  0.67200000  0.14800000  0.25600000  1.0
  Ta5+  Ta1  1  0.07400000  0.34400000  0.75600000  1.0
  Ta5+  Ta1  1  0.57400000  0.34400000  0.75600000  1.0
  Ta5+  Ta1  1  0.32800000  0.85200000  0.74400000  1.0
  Ta5+  Ta1  1  0.82800000  0.85200000  0.74400000  1.0
  Ta5+  Ta2  1  0.17650000  0.64700000  0.25000000  1.0
  Ta5+  Ta2  1  0.67650000  0.64700000  0.25000000  1.0
  Ta5+  Ta2  1  0.32350000  0.35300000  0.75000000  1.0
  Ta5+  Ta2  1  0.82350000  0.35300000  0.75000000  1.0
  Ta5+  Ta3  1  0.00000000  0.00000000  0.50000000  1.0
  Ta5+  Ta3  1  0.50000000  0.00000000  0.50000000  1.0
  Ta5+  Ta3  1  0.00000000  0.00000000  0.00000000  1.0
  Ta5+  Ta3  1  0.50000000  0.00000000  0.00000000  1.0
  Si4+  Si28  1  0.35800000  0.30600000  0.43900000  1.0
  Si4+  Si29  1  0.85800000  0.30600000  0.43900000  1.0
  Si4+  Si30  1  0.34700000  0.28400000  0.06100000  1.0
  Si4+  Si31  1  0.14200000  0.69400000  0.56100000  1.0
  P5+  P32  1  0.84700000  0.28400000  0.06100000  1.0
  P5+  P33  1  0.64200000  0.69400000  0.56100000  1.0
  P5+  P34  1  0.15300000  0.71600000  0.93900000  1.0
  P5+  P35  1  0.65300000  0.71600000  0.93900000  1.0
  O2-  O1  1  0.14150000  0.60100000  0.43400000  1.0
  O2-  O1  1  0.64150000  0.60100000  0.43400000  1.0
  O2-  O1  1  0.19950000  0.71700000  0.06600000  1.0
  O2-  O1  1  0.69950000  0.71700000  0.06600000  1.0
  O2-  O1  1  0.35850000  0.39900000  0.56600000  1.0
  O2-  O1  1  0.85850000  0.39900000  0.56600000  1.0
  O2-  O1  1  0.30050000  0.28300000  0.93400000  1.0
  O2-  O1  1  0.80050000  0.28300000  0.93400000  1.0
  O2-  O2  1  0.38000000  0.49200000  0.10100000  1.0
  O2-  O2  1  0.88000000  0.49200000  0.10100000  1.0
  O2-  O2  1  0.25400000  0.24000000  0.39900000  1.0
  O2-  O2  1  0.75400000  0.24000000  0.39900000  1.0
  O2-  O2  1  0.12000000  0.50800000  0.89900000  1.0
  O2-  O2  1  0.62000000  0.50800000  0.89900000  1.0
  O2-  O2  1  0.24600000  0.76000000  0.60100000  1.0
  O2-  O2  1  0.74600000  0.76000000  0.60100000  1.0
  O2-  O3  1  0.07600000  0.11800000  0.37500000  1.0
  O2-  O3  1  0.57600000  0.11800000  0.37500000  1.0
  O2-  O3  1  0.44100000  0.84800000  0.12500000  1.0
  O2-  O3  1  0.94100000  0.84800000  0.12500000  1.0
  O2-  O3  1  0.42400000  0.88200000  0.62500000  1.0
  O2-  O3  1  0.92400000  0.88200000  0.62500000  1.0
  O2-  O3  1  0.05900000  0.15200000  0.87500000  1.0
  O2-  O3  1  0.55900000  0.15200000  0.87500000  1.0
  O2-  O4  1  0.06000000  0.78400000  0.93900000  1.0
  O2-  O4  1  0.56000000  0.78400000  0.93900000  1.0
  O2-  O4  1  0.10800000  0.88000000  0.56100000  1.0
  O2-  O4  1  0.60800000  0.88000000  0.56100000  1.0
  O2-  O4  1  0.44000000  0.21600000  0.06100000  1.0
  O2-  O4  1  0.94000000  0.21600000  0.06100000  1.0
  O2-  O4  1  0.39200000  0.12000000  0.43900000  1.0
  O2-  O4  1  0.89200000  0.12000000  0.43900000  1.0
  O2-  O5  1  0.04600000  0.61400000  0.21600000  1.0
  O2-  O5  1  0.54600000  0.61400000  0.21600000  1.0
  O2-  O5  1  0.19300000  0.90800000  0.28400000  1.0
  O2-  O5  1  0.69300000  0.90800000  0.28400000  1.0
  O2-  O5  1  0.45400000  0.38600000  0.78400000  1.0
  O2-  O5  1  0.95400000  0.38600000  0.78400000  1.0
  O2-  O5  1  0.30700000  0.09200000  0.71600000  1.0
  O2-  O5  1  0.80700000  0.09200000  0.71600000  1.0
  O2-  O6  1  0.45800000  0.80200000  0.38600000  1.0
  O2-  O6  1  0.95800000  0.80200000  0.38600000  1.0
  O2-  O6  1  0.09900000  0.08400000  0.11400000  1.0
  O2-  O6  1  0.59900000  0.08400000  0.11400000  1.0
  O2-  O6  1  0.04200000  0.19800000  0.61400000  1.0
  O2-  O6  1  0.54200000  0.19800000  0.61400000  1.0
  O2-  O6  1  0.40100000  0.91600000  0.88600000  1.0
  O2-  O6  1  0.90100000  0.91600000  0.88600000  1.0
  O2-  O7  1  0.41750000  0.42300000  0.34300000  1.0
  O2-  O7  1  0.91750000  0.42300000  0.34300000  1.0
  O2-  O7  1  0.28850000  0.16500000  0.15700000  1.0
  O2-  O7  1  0.78850000  0.16500000  0.15700000  1.0
  O2-  O7  1  0.08250000  0.57700000  0.65700000  1.0
  O2-  O7  1  0.58250000  0.57700000  0.65700000  1.0
  O2-  O7  1  0.21150000  0.83500000  0.84300000  1.0
  O2-  O7  1  0.71150000  0.83500000  0.84300000  1.0
  O2-  O8  1  0.16350000  0.40500000  0.21200000  1.0
  O2-  O8  1  0.66350000  0.40500000  0.21200000  1.0
  O2-  O8  1  0.29750000  0.67300000  0.28800000  1.0
  O2-  O8  1  0.79750000  0.67300000  0.28800000  1.0
  O2-  O8  1  0.33650000  0.59500000  0.78800000  1.0
  O2-  O8  1  0.83650000  0.59500000  0.78800000  1.0
  O2-  O8  1  0.20250000  0.32700000  0.71200000  1.0
  O2-  O8  1  0.70250000  0.32700000  0.71200000  1.0
