# generated using pymatgen
data_Li16Sn3GeSe16
_symmetry_space_group_name_H-M   'P 1'
_cell_length_a   13.16986000
_cell_length_b   14.93267000
_cell_length_c   16.46104000
_cell_angle_alpha   90.00000000
_cell_angle_beta   90.00000000
_cell_angle_gamma   90.00000000
_symmetry_Int_Tables_number   1
_chemical_formula_structural   Li16Sn3GeSe16
_chemical_formula_sum   'Li64 Sn12 Ge4 Se64'
_cell_volume   3237.24744057
_cell_formula_units_Z   4
loop_
 _symmetry_equiv_pos_site_id
 _symmetry_equiv_pos_as_xyz
  1  'x, y, z'
loop_
 _atom_type_symbol
 _atom_type_oxidation_number
  Li+  1.0
  Sn4+  4.0
  Ge4+  4.0
  Se2-  -2.0
loop_
 _atom_site_type_symbol
 _atom_site_label
 _atom_site_symmetry_multiplicity
 _atom_site_fract_x
 _atom_site_fract_y
 _atom_site_fract_z
 _atom_site_occupancy
  Li+  Li0  1  0.31005000  0.41270000  0.62500000  1.0
  Li+  Li1  1  0.31005000  0.41270000  0.12500000  1.0
  Li+  Li2  1  0.81005000  0.41270000  0.62500000  1.0
  Li+  Li3  1  0.81005000  0.41270000  0.12500000  1.0
  Li+  Li4  1  0.18995000  0.58730000  0.37500000  1.0
  Li+  Li5  1  0.18995000  0.58730000  0.87500000  1.0
  Li+  Li6  1  0.68995000  0.58730000  0.37500000  1.0
  Li+  Li7  1  0.68995000  0.58730000  0.87500000  1.0
  Li+  Li8  1  0.06005000  0.08730000  0.37500000  1.0
  Li+  Li9  1  0.06005000  0.08730000  0.87500000  1.0
  Li+  Li10  1  0.56005000  0.08730000  0.37500000  1.0
  Li+  Li11  1  0.56005000  0.08730000  0.87500000  1.0
  Li+  Li12  1  0.43995000  0.91270000  0.62500000  1.0
  Li+  Li13  1  0.43836839  0.90908945  0.12753862  1.0
  Li+  Li14  1  0.94084545  0.90966529  0.62845875  1.0
  Li+  Li15  1  0.93995000  0.91270000  0.12500000  1.0
  Li+  Li16  1  0.34270000  0.17480000  0.74805000  1.0
  Li+  Li17  1  0.34270000  0.17480000  0.24805000  1.0
  Li+  Li18  1  0.84270000  0.17480000  0.74805000  1.0
  Li+  Li19  1  0.84270000  0.17480000  0.24805000  1.0
  Li+  Li20  1  0.16021794  0.82062599  0.49674450  1.0
  Li+  Li21  1  0.15691567  0.81962350  0.99634925  1.0
  Li+  Li22  1  0.65660274  0.82105603  0.50145449  1.0
  Li+  Li23  1  0.65730000  0.82520000  0.99805000  1.0
  Li+  Li24  1  0.09270000  0.32520000  0.25195000  1.0
  Li+  Li25  1  0.09270000  0.32520000  0.75195000  1.0
  Li+  Li26  1  0.59270000  0.32520000  0.25195000  1.0
  Li+  Li27  1  0.59270000  0.32520000  0.75195000  1.0
  Li+  Li28  1  0.09270000  0.32520000  0.49805000  1.0
  Li+  Li29  1  0.09270000  0.32520000  0.99805000  1.0
  Li+  Li30  1  0.59270000  0.32520000  0.49805000  1.0
  Li+  Li31  1  0.59220378  0.32742605  0.99776714  1.0
  Li+  Li32  1  0.33878919  0.17397948  0.50373693  1.0
  Li+  Li33  1  0.34270000  0.17480000  0.00195000  1.0
  Li+  Li34  1  0.84335020  0.18593204  0.50046835  1.0
  Li+  Li35  1  0.84376869  0.17245808  0.00237032  1.0
  Li+  Li36  1  0.15730000  0.82520000  0.25195000  1.0
  Li+  Li37  1  0.15730000  0.82520000  0.75195000  1.0
  Li+  Li38  1  0.65730000  0.82520000  0.25195000  1.0
  Li+  Li39  1  0.65730000  0.82520000  0.75195000  1.0
  Li+  Li40  1  0.40730000  0.67480000  0.50195000  1.0
  Li+  Li41  1  0.40730000  0.67480000  0.00195000  1.0
  Li+  Li42  1  0.90730000  0.67480000  0.50195000  1.0
  Li+  Li43  1  0.90730000  0.67480000  0.00195000  1.0
  Li+  Li44  1  0.40803598  0.67535666  0.75056449  1.0
  Li+  Li45  1  0.40730000  0.67480000  0.24805000  1.0
  Li+  Li46  1  0.90730000  0.67480000  0.74805000  1.0
  Li+  Li47  1  0.90730000  0.67480000  0.24805000  1.0
  Li+  Li48  1  0.26225000  0.00170000  0.74090000  1.0
  Li+  Li49  1  0.26225000  0.00170000  0.24090000  1.0
  Li+  Li50  1  0.76496149  0.00122172  0.73615174  1.0
  Li+  Li51  1  0.76183286  0.99790809  0.23922113  1.0
  Li+  Li52  1  0.01225000  0.49830000  0.25910000  1.0
  Li+  Li53  1  0.01225000  0.49830000  0.75910000  1.0
  Li+  Li54  1  0.51225000  0.49830000  0.25910000  1.0
  Li+  Li55  1  0.51411256  0.49784840  0.76268427  1.0
  Li+  Li56  1  0.01225000  0.49830000  0.49090000  1.0
  Li+  Li57  1  0.01323126  0.49717422  0.98944947  1.0
  Li+  Li58  1  0.51225000  0.49830000  0.49090000  1.0
  Li+  Li59  1  0.51041733  0.49388607  0.99217764  1.0
  Li+  Li60  1  0.26811585  0.99875951  0.50902539  1.0
  Li+  Li61  1  0.26225000  0.00170000  0.00910000  1.0
  Li+  Li62  1  0.76189684  0.00244478  0.50975736  1.0
  Li+  Li63  1  0.76225000  0.00170000  0.00910000  1.0
  Sn4+  Sn64  1  0.32200000  0.40888000  0.37500000  1.0
  Sn4+  Sn65  1  0.32200000  0.40888000  0.87500000  1.0
  Sn4+  Sn66  1  0.17800000  0.59112000  0.62500000  1.0
  Sn4+  Sn67  1  0.17800000  0.59112000  0.12500000  1.0
  Sn4+  Sn68  1  0.67800000  0.59112000  0.62500000  1.0
  Sn4+  Sn69  1  0.67823483  0.59399033  0.12884212  1.0
  Sn4+  Sn70  1  0.07200000  0.09112000  0.62500000  1.0
  Sn4+  Sn71  1  0.07200000  0.09112000  0.12500000  1.0
  Sn4+  Sn72  1  0.57200000  0.09112000  0.62500000  1.0
  Sn4+  Sn73  1  0.57200000  0.09112000  0.12500000  1.0
  Sn4+  Sn74  1  0.92800000  0.90888000  0.37500000  1.0
  Sn4+  Sn75  1  0.92800000  0.90888000  0.87500000  1.0
  Ge4+  Ge76  1  0.82200000  0.40888000  0.37500000  1.0
  Ge4+  Ge77  1  0.82200000  0.40888000  0.87500000  1.0
  Ge4+  Ge78  1  0.42800000  0.90888000  0.37500000  1.0
  Ge4+  Ge79  1  0.42800000  0.90888000  0.87500000  1.0
  Se2-  Se80  1  0.39100000  0.33970000  0.25099000  1.0
  Se2-  Se81  1  0.39100000  0.33970000  0.75099000  1.0
  Se2-  Se82  1  0.89100000  0.33970000  0.25099000  1.0
  Se2-  Se83  1  0.89100000  0.33970000  0.75099000  1.0
  Se2-  Se84  1  0.10900000  0.66030000  0.50099000  1.0
  Se2-  Se85  1  0.10900000  0.66030000  0.00099000  1.0
  Se2-  Se86  1  0.60900000  0.66030000  0.50099000  1.0
  Se2-  Se87  1  0.60900000  0.66030000  0.00099000  1.0
  Se2-  Se88  1  0.14187116  0.15974916  0.75315078  1.0
  Se2-  Se89  1  0.14100000  0.16030000  0.24901000  1.0
  Se2-  Se90  1  0.64100000  0.16030000  0.74901000  1.0
  Se2-  Se91  1  0.64100000  0.16030000  0.24901000  1.0
  Se2-  Se92  1  0.14100000  0.16030000  0.50099000  1.0
  Se2-  Se93  1  0.14100000  0.16030000  0.00099000  1.0
  Se2-  Se94  1  0.64100000  0.16030000  0.50099000  1.0
  Se2-  Se95  1  0.64100000  0.16030000  0.00099000  1.0
  Se2-  Se96  1  0.39100000  0.33970000  0.49901000  1.0
  Se2-  Se97  1  0.38999885  0.34242987  0.99708767  1.0
  Se2-  Se98  1  0.89501546  0.33893567  0.50010923  1.0
  Se2-  Se99  1  0.89284706  0.33646534  0.99981637  1.0
  Se2-  Se100  1  0.10900000  0.66030000  0.74901000  1.0
  Se2-  Se101  1  0.10900000  0.66030000  0.24901000  1.0
  Se2-  Se102  1  0.60900000  0.66030000  0.74901000  1.0
  Se2-  Se103  1  0.60942285  0.66095688  0.25102188  1.0
  Se2-  Se104  1  0.35900000  0.83970000  0.49901000  1.0
  Se2-  Se105  1  0.35900000  0.83970000  0.99901000  1.0
  Se2-  Se106  1  0.86073734  0.84305389  0.50091922  1.0
  Se2-  Se107  1  0.85900000  0.83970000  0.99901000  1.0
  Se2-  Se108  1  0.35900000  0.83970000  0.25099000  1.0
  Se2-  Se109  1  0.35900000  0.83970000  0.75099000  1.0
  Se2-  Se110  1  0.85993736  0.84502550  0.25291620  1.0
  Se2-  Se111  1  0.85900000  0.83970000  0.75099000  1.0
  Se2-  Se112  1  0.38545000  0.08426000  0.62500000  1.0
  Se2-  Se113  1  0.38576934  0.08286069  0.12272385  1.0
  Se2-  Se114  1  0.88545000  0.08426000  0.62500000  1.0
  Se2-  Se115  1  0.88545000  0.08426000  0.12500000  1.0
  Se2-  Se116  1  0.11304258  0.91274253  0.37244368  1.0
  Se2-  Se117  1  0.11471849  0.91836072  0.87336478  1.0
  Se2-  Se118  1  0.61588449  0.91884385  0.37369775  1.0
  Se2-  Se119  1  0.61455000  0.91574000  0.87500000  1.0
  Se2-  Se120  1  0.13545000  0.41574000  0.37500000  1.0
  Se2-  Se121  1  0.13545000  0.41574000  0.87500000  1.0
  Se2-  Se122  1  0.63968262  0.41234138  0.37505677  1.0
  Se2-  Se123  1  0.63545000  0.41574000  0.87500000  1.0
  Se2-  Se124  1  0.36455000  0.58426000  0.62500000  1.0
  Se2-  Se125  1  0.36455000  0.58426000  0.12500000  1.0
  Se2-  Se126  1  0.86455000  0.58426000  0.62500000  1.0
  Se2-  Se127  1  0.86455000  0.58426000  0.12500000  1.0
  Se2-  Se128  1  0.36440000  0.06578000  0.37500000  1.0
  Se2-  Se129  1  0.36440000  0.06578000  0.87500000  1.0
  Se2-  Se130  1  0.86440000  0.06578000  0.37500000  1.0
  Se2-  Se131  1  0.86440000  0.06578000  0.87500000  1.0
  Se2-  Se132  1  0.13571631  0.93578065  0.62650215  1.0
  Se2-  Se133  1  0.13560000  0.93422000  0.12500000  1.0
  Se2-  Se134  1  0.63560000  0.93422000  0.62500000  1.0
  Se2-  Se135  1  0.64032052  0.93356049  0.12368934  1.0
  Se2-  Se136  1  0.11440000  0.43422000  0.62500000  1.0
  Se2-  Se137  1  0.11392322  0.44070785  0.12340797  1.0
  Se2-  Se138  1  0.61440000  0.43422000  0.62500000  1.0
  Se2-  Se139  1  0.61438076  0.43391657  0.12734647  1.0
  Se2-  Se140  1  0.38641791  0.56667502  0.37313748  1.0
  Se2-  Se141  1  0.38560000  0.56578000  0.87500000  1.0
  Se2-  Se142  1  0.88343296  0.56439688  0.38008864  1.0
  Se2-  Se143  1  0.88560000  0.56578000  0.87500000  1.0
