# generated using pymatgen
data_Li16Sn3GeSe16
_symmetry_space_group_name_H-M   'P 1'
_cell_length_a   13.16986000
_cell_length_b   16.46104000
_cell_length_c   14.93267000
_cell_angle_alpha   90.00000000
_cell_angle_beta   90.00000000
_cell_angle_gamma   90.00000000
_symmetry_Int_Tables_number   1
_chemical_formula_structural   Li16Sn3GeSe16
_chemical_formula_sum   'Li64 Sn12 Ge4 Se64'
_cell_volume   3237.24744057
_cell_formula_units_Z   4
loop_
 _symmetry_equiv_pos_site_id
 _symmetry_equiv_pos_as_xyz
  1  'x, y, z'
loop_
 _atom_type_symbol
 _atom_type_oxidation_number
  Li+  1.0
  Sn4+  4.0
  Ge4+  4.0
  Se2-  -2.0
loop_
 _atom_site_type_symbol
 _atom_site_label
 _atom_site_symmetry_multiplicity
 _atom_site_fract_x
 _atom_site_fract_y
 _atom_site_fract_z
 _atom_site_occupancy
  Li+  Li1  1  0.31005000  0.12500000  0.58730000  1.0
  Li+  Li1  1  0.31005000  0.62500000  0.58730000  1.0
  Li+  Li1  1  0.81005000  0.12500000  0.58730000  1.0
  Li+  Li1  1  0.81005000  0.62500000  0.58730000  1.0
  Li+  Li1  1  0.18995000  0.37500000  0.41270000  1.0
  Li+  Li1  1  0.18995000  0.87500000  0.41270000  1.0
  Li+  Li1  1  0.68995000  0.37500000  0.41270000  1.0
  Li+  Li1  1  0.68995000  0.87500000  0.41270000  1.0
  Li+  Li1  1  0.06005000  0.37500000  0.91270000  1.0
  Li+  Li1  1  0.06005000  0.87500000  0.91270000  1.0
  Li+  Li1  1  0.56005000  0.37500000  0.91270000  1.0
  Li+  Li1  1  0.56005000  0.87500000  0.91270000  1.0
  Li+  Li1  1  0.43995000  0.12500000  0.08730000  1.0
  Li+  Li1  1  0.43995000  0.62500000  0.08730000  1.0
  Li+  Li1  1  0.93995000  0.12500000  0.08730000  1.0
  Li+  Li1  1  0.93995000  0.62500000  0.08730000  1.0
  Li+  Li2  1  0.34270000  0.00195000  0.82520000  1.0
  Li+  Li2  1  0.34270000  0.50195000  0.82520000  1.0
  Li+  Li2  1  0.84270000  0.00195000  0.82520000  1.0
  Li+  Li2  1  0.84270000  0.50195000  0.82520000  1.0
  Li+  Li2  1  0.15730000  0.25195000  0.17480000  1.0
  Li+  Li2  1  0.15730000  0.75195000  0.17480000  1.0
  Li+  Li2  1  0.65730000  0.25195000  0.17480000  1.0
  Li+  Li2  1  0.65730000  0.75195000  0.17480000  1.0
  Li+  Li2  1  0.09270000  0.49805000  0.67480000  1.0
  Li+  Li2  1  0.09270000  0.99805000  0.67480000  1.0
  Li+  Li2  1  0.59270000  0.49805000  0.67480000  1.0
  Li+  Li2  1  0.59270000  0.99805000  0.67480000  1.0
  Li+  Li2  1  0.09270000  0.25195000  0.67480000  1.0
  Li+  Li2  1  0.09270000  0.75195000  0.67480000  1.0
  Li+  Li2  1  0.59270000  0.25195000  0.67480000  1.0
  Li+  Li2  1  0.59270000  0.75195000  0.67480000  1.0
  Li+  Li2  1  0.34270000  0.24805000  0.82520000  1.0
  Li+  Li2  1  0.34270000  0.74805000  0.82520000  1.0
  Li+  Li2  1  0.84270000  0.24805000  0.82520000  1.0
  Li+  Li2  1  0.84270000  0.74805000  0.82520000  1.0
  Li+  Li2  1  0.15730000  0.49805000  0.17480000  1.0
  Li+  Li2  1  0.15730000  0.99805000  0.17480000  1.0
  Li+  Li2  1  0.65730000  0.49805000  0.17480000  1.0
  Li+  Li2  1  0.65730000  0.99805000  0.17480000  1.0
  Li+  Li2  1  0.40730000  0.24805000  0.32520000  1.0
  Li+  Li2  1  0.40730000  0.74805000  0.32520000  1.0
  Li+  Li2  1  0.90730000  0.24805000  0.32520000  1.0
  Li+  Li2  1  0.90730000  0.74805000  0.32520000  1.0
  Li+  Li2  1  0.40730000  0.00195000  0.32520000  1.0
  Li+  Li2  1  0.40730000  0.50195000  0.32520000  1.0
  Li+  Li2  1  0.90730000  0.00195000  0.32520000  1.0
  Li+  Li2  1  0.90730000  0.50195000  0.32520000  1.0
  Li+  Li24  1  0.26225000  0.00910000  0.99830000  1.0
  Li+  Li24  1  0.26225000  0.50910000  0.99830000  1.0
  Li+  Li25  1  0.76225000  0.00910000  0.99830000  1.0
  Li+  Li25  1  0.76225000  0.50910000  0.99830000  1.0
  Li+  Li26  1  0.01225000  0.49090000  0.50170000  1.0
  Li+  Li26  1  0.01225000  0.99090000  0.50170000  1.0
  Li+  Li27  1  0.51225000  0.49090000  0.50170000  1.0
  Li+  Li27  1  0.51225000  0.99090000  0.50170000  1.0
  Li+  Li28  1  0.01225000  0.25910000  0.50170000  1.0
  Li+  Li28  1  0.01225000  0.75910000  0.50170000  1.0
  Li+  Li29  1  0.51225000  0.25910000  0.50170000  1.0
  Li+  Li29  1  0.51225000  0.75910000  0.50170000  1.0
  Li+  Li30  1  0.26225000  0.24090000  0.99830000  1.0
  Li+  Li30  1  0.26225000  0.74090000  0.99830000  1.0
  Li+  Li31  1  0.76225000  0.24090000  0.99830000  1.0
  Li+  Li31  1  0.76225000  0.74090000  0.99830000  1.0
  Sn4+  Sn32  1  0.32200000  0.37500000  0.59112000  1.0
  Sn4+  Sn32  1  0.32200000  0.87500000  0.59112000  1.0
  Sn4+  Sn33  1  0.17800000  0.12500000  0.40888000  1.0
  Sn4+  Sn33  1  0.17800000  0.62500000  0.40888000  1.0
  Sn4+  Sn34  1  0.67800000  0.12500000  0.40888000  1.0
  Sn4+  Sn34  1  0.67800000  0.62500000  0.40888000  1.0
  Sn4+  Sn35  1  0.07200000  0.12500000  0.90888000  1.0
  Sn4+  Sn35  1  0.07200000  0.62500000  0.90888000  1.0
  Sn4+  Sn36  1  0.57200000  0.12500000  0.90888000  1.0
  Sn4+  Sn36  1  0.57200000  0.62500000  0.90888000  1.0
  Sn4+  Sn37  1  0.92800000  0.37500000  0.09112000  1.0
  Sn4+  Sn37  1  0.92800000  0.87500000  0.09112000  1.0
  Ge4+  Ge38  1  0.82200000  0.37500000  0.59112000  1.0
  Ge4+  Ge38  1  0.82200000  0.87500000  0.59112000  1.0
  Ge4+  Ge39  1  0.42800000  0.37500000  0.09112000  1.0
  Ge4+  Ge39  1  0.42800000  0.87500000  0.09112000  1.0
  Se2-  Se1  1  0.39100000  0.49901000  0.66030000  1.0
  Se2-  Se1  1  0.39100000  0.99901000  0.66030000  1.0
  Se2-  Se1  1  0.89100000  0.49901000  0.66030000  1.0
  Se2-  Se1  1  0.89100000  0.99901000  0.66030000  1.0
  Se2-  Se1  1  0.10900000  0.24901000  0.33970000  1.0
  Se2-  Se1  1  0.10900000  0.74901000  0.33970000  1.0
  Se2-  Se1  1  0.60900000  0.24901000  0.33970000  1.0
  Se2-  Se1  1  0.60900000  0.74901000  0.33970000  1.0
  Se2-  Se1  1  0.14100000  0.00099000  0.83970000  1.0
  Se2-  Se1  1  0.14100000  0.50099000  0.83970000  1.0
  Se2-  Se1  1  0.64100000  0.00099000  0.83970000  1.0
  Se2-  Se1  1  0.64100000  0.50099000  0.83970000  1.0
  Se2-  Se1  1  0.14100000  0.24901000  0.83970000  1.0
  Se2-  Se1  1  0.14100000  0.74901000  0.83970000  1.0
  Se2-  Se1  1  0.64100000  0.24901000  0.83970000  1.0
  Se2-  Se1  1  0.64100000  0.74901000  0.83970000  1.0
  Se2-  Se1  1  0.39100000  0.25099000  0.66030000  1.0
  Se2-  Se1  1  0.39100000  0.75099000  0.66030000  1.0
  Se2-  Se1  1  0.89100000  0.25099000  0.66030000  1.0
  Se2-  Se1  1  0.89100000  0.75099000  0.66030000  1.0
  Se2-  Se1  1  0.10900000  0.00099000  0.33970000  1.0
  Se2-  Se1  1  0.10900000  0.50099000  0.33970000  1.0
  Se2-  Se1  1  0.60900000  0.00099000  0.33970000  1.0
  Se2-  Se1  1  0.60900000  0.50099000  0.33970000  1.0
  Se2-  Se1  1  0.35900000  0.25099000  0.16030000  1.0
  Se2-  Se1  1  0.35900000  0.75099000  0.16030000  1.0
  Se2-  Se1  1  0.85900000  0.25099000  0.16030000  1.0
  Se2-  Se1  1  0.85900000  0.75099000  0.16030000  1.0
  Se2-  Se1  1  0.35900000  0.49901000  0.16030000  1.0
  Se2-  Se1  1  0.35900000  0.99901000  0.16030000  1.0
  Se2-  Se1  1  0.85900000  0.49901000  0.16030000  1.0
  Se2-  Se1  1  0.85900000  0.99901000  0.16030000  1.0
  Se2-  Se2  1  0.38545000  0.12500000  0.91574000  1.0
  Se2-  Se2  1  0.38545000  0.62500000  0.91574000  1.0
  Se2-  Se2  1  0.88545000  0.12500000  0.91574000  1.0
  Se2-  Se2  1  0.88545000  0.62500000  0.91574000  1.0
  Se2-  Se2  1  0.11455000  0.37500000  0.08426000  1.0
  Se2-  Se2  1  0.11455000  0.87500000  0.08426000  1.0
  Se2-  Se2  1  0.61455000  0.37500000  0.08426000  1.0
  Se2-  Se2  1  0.61455000  0.87500000  0.08426000  1.0
  Se2-  Se2  1  0.13545000  0.37500000  0.58426000  1.0
  Se2-  Se2  1  0.13545000  0.87500000  0.58426000  1.0
  Se2-  Se2  1  0.63545000  0.37500000  0.58426000  1.0
  Se2-  Se2  1  0.63545000  0.87500000  0.58426000  1.0
  Se2-  Se2  1  0.36455000  0.12500000  0.41574000  1.0
  Se2-  Se2  1  0.36455000  0.62500000  0.41574000  1.0
  Se2-  Se2  1  0.86455000  0.12500000  0.41574000  1.0
  Se2-  Se2  1  0.86455000  0.62500000  0.41574000  1.0
  Se2-  Se3  1  0.36440000  0.37500000  0.93422000  1.0
  Se2-  Se3  1  0.36440000  0.87500000  0.93422000  1.0
  Se2-  Se3  1  0.86440000  0.37500000  0.93422000  1.0
  Se2-  Se3  1  0.86440000  0.87500000  0.93422000  1.0
  Se2-  Se3  1  0.13560000  0.12500000  0.06578000  1.0
  Se2-  Se3  1  0.13560000  0.62500000  0.06578000  1.0
  Se2-  Se3  1  0.63560000  0.12500000  0.06578000  1.0
  Se2-  Se3  1  0.63560000  0.62500000  0.06578000  1.0
  Se2-  Se3  1  0.11440000  0.12500000  0.56578000  1.0
  Se2-  Se3  1  0.11440000  0.62500000  0.56578000  1.0
  Se2-  Se3  1  0.61440000  0.12500000  0.56578000  1.0
  Se2-  Se3  1  0.61440000  0.62500000  0.56578000  1.0
  Se2-  Se3  1  0.38560000  0.37500000  0.43422000  1.0
  Se2-  Se3  1  0.38560000  0.87500000  0.43422000  1.0
  Se2-  Se3  1  0.88560000  0.37500000  0.43422000  1.0
  Se2-  Se3  1  0.88560000  0.87500000  0.43422000  1.0
