# generated using pymatgen
data_Li4PS4I
_symmetry_space_group_name_H-M   'P 1'
_cell_length_a   11.86026000
_cell_length_b   16.96570000
_cell_length_c   16.96570000
_cell_angle_alpha   90.00000000
_cell_angle_beta   90.00000000
_cell_angle_gamma   90.00000000
_symmetry_Int_Tables_number   1
_chemical_formula_structural   Li4PS4I
_chemical_formula_sum   'Li64 P16 S64 I16'
_cell_volume   3413.79765827
_cell_formula_units_Z   16
loop_
 _symmetry_equiv_pos_site_id
 _symmetry_equiv_pos_as_xyz
  1  'x, y, z'
loop_
 _atom_type_symbol
 _atom_type_oxidation_number
  Li+  1.0
  P5+  5.0
  S2-  -2.0
  I-  -1.0
loop_
 _atom_site_type_symbol
 _atom_site_label
 _atom_site_symmetry_multiplicity
 _atom_site_fract_x
 _atom_site_fract_y
 _atom_site_fract_z
 _atom_site_occupancy
  Li+  Li0  1  0.44659500  0.30783500  0.62500000  1.0
  Li+  Li0  1  0.44659500  0.80783500  0.62500000  1.0
  Li+  Li1  1  0.05340500  0.05783500  0.37500000  1.0
  Li+  Li1  1  0.05340500  0.55783500  0.37500000  1.0
  Li+  Li2  1  0.70764500  0.47696000  0.47696000  1.0
  Li+  Li2  1  0.70764500  0.97696000  0.47696000  1.0
  Li+  Li3  1  0.20764500  0.27304000  0.97696000  1.0
  Li+  Li3  1  0.20764500  0.77304000  0.97696000  1.0
  Li+  Li4  1  0.70764500  0.27304000  0.47696000  1.0
  Li+  Li4  1  0.70764500  0.77304000  0.47696000  1.0
  Li+  Li5  1  0.20764500  0.27304000  0.77304000  1.0
  Li+  Li5  1  0.20764500  0.77304000  0.77304000  1.0
  Li+  Li6  1  0.70764500  0.27304000  0.77304000  1.0
  Li+  Li6  1  0.70764500  0.77304000  0.77304000  1.0
  Li+  Li7  1  0.79235500  0.02304000  0.02304000  1.0
  Li+  Li7  1  0.79235500  0.52304000  0.02304000  1.0
  Li+  Li8  1  0.79235500  0.02304000  0.52304000  1.0
  Li+  Li8  1  0.79235500  0.52304000  0.52304000  1.0
  Li+  Li9  1  0.29235500  0.22696000  0.52304000  1.0
  Li+  Li9  1  0.29235500  0.72696000  0.52304000  1.0
  Li+  Li10  1  0.79235500  0.22696000  0.02304000  1.0
  Li+  Li10  1  0.79235500  0.72696000  0.02304000  1.0
  Li+  Li11  1  0.29235500  0.02304000  0.22696000  1.0
  Li+  Li11  1  0.29235500  0.52304000  0.22696000  1.0
  Li+  Li12  1  0.79235500  0.02304000  0.22696000  1.0
  Li+  Li12  1  0.79235500  0.52304000  0.22696000  1.0
  Li+  Li13  1  0.29235500  0.22696000  0.22696000  1.0
  Li+  Li13  1  0.29235500  0.72696000  0.22696000  1.0
  Li+  Li14  1  0.50000000  0.25000000  0.25000000  1.0
  Li+  Li14  1  0.50000000  0.75000000  0.25000000  1.0
  Li+  Li15  1  0.50000000  0.25000000  0.75000000  1.0
  Li+  Li15  1  0.50000000  0.75000000  0.75000000  1.0
  Li+  Li16  1  0.50000000  0.00000000  0.25000000  1.0
  Li+  Li16  1  0.50000000  0.50000000  0.25000000  1.0
  Li+  Li17  1  0.50000000  0.00000000  0.75000000  1.0
  Li+  Li17  1  0.50000000  0.50000000  0.75000000  1.0
  Li+  Li18  1  0.50000000  0.25000000  0.00000000  1.0
  Li+  Li18  1  0.50000000  0.75000000  0.00000000  1.0
  Li+  Li19  1  0.00000000  0.25000000  0.50000000  1.0
  Li+  Li19  1  0.00000000  0.75000000  0.50000000  1.0
  Li+  Li20  1  0.00000000  0.00000000  0.00000000  1.0
  Li+  Li20  1  0.00000000  0.50000000  0.00000000  1.0
  Li+  Li21  1  0.00000000  0.00000000  0.50000000  1.0
  Li+  Li21  1  0.00000000  0.50000000  0.50000000  1.0
  Li+  Li22  1  0.20282000  0.12500000  0.12500000  1.0
  Li+  Li22  1  0.20282000  0.62500000  0.12500000  1.0
  Li+  Li23  1  0.20282000  0.12500000  0.62500000  1.0
  Li+  Li23  1  0.20282000  0.62500000  0.62500000  1.0
  Li+  Li24  1  0.70282000  0.12500000  0.12500000  1.0
  Li+  Li24  1  0.70282000  0.62500000  0.12500000  1.0
  Li+  Li25  1  0.70282000  0.12500000  0.62500000  1.0
  Li+  Li25  1  0.70282000  0.62500000  0.62500000  1.0
  Li+  Li26  1  0.29718000  0.37500000  0.87500000  1.0
  Li+  Li26  1  0.29718000  0.87500000  0.87500000  1.0
  Li+  Li27  1  0.79718000  0.37500000  0.87500000  1.0
  Li+  Li27  1  0.79718000  0.87500000  0.87500000  1.0
  Li+  Li28  1  0.00000000  0.12500000  0.87500000  1.0
  Li+  Li28  1  0.00000000  0.62500000  0.87500000  1.0
  Li+  Li29  1  0.50000000  0.12500000  0.37500000  1.0
  Li+  Li29  1  0.50000000  0.62500000  0.37500000  1.0
  Li+  Li30  1  0.50000000  0.37500000  0.12500000  1.0
  Li+  Li30  1  0.50000000  0.87500000  0.12500000  1.0
  Li+  Li31  1  0.00000000  0.37500000  0.62500000  1.0
  Li+  Li31  1  0.00000000  0.87500000  0.62500000  1.0
  P5+  P1  1  0.25000000  0.37500000  0.12500000  1.0
  P5+  P1  1  0.25000000  0.87500000  0.12500000  1.0
  P5+  P1  1  0.25000000  0.37500000  0.62500000  1.0
  P5+  P1  1  0.25000000  0.87500000  0.62500000  1.0
  P5+  P1  1  0.75000000  0.37500000  0.12500000  1.0
  P5+  P1  1  0.75000000  0.87500000  0.12500000  1.0
  P5+  P1  1  0.75000000  0.37500000  0.62500000  1.0
  P5+  P1  1  0.75000000  0.87500000  0.62500000  1.0
  P5+  P1  1  0.25000000  0.12500000  0.37500000  1.0
  P5+  P1  1  0.25000000  0.62500000  0.37500000  1.0
  P5+  P1  1  0.25000000  0.12500000  0.87500000  1.0
  P5+  P1  1  0.25000000  0.62500000  0.87500000  1.0
  P5+  P1  1  0.75000000  0.12500000  0.37500000  1.0
  P5+  P1  1  0.75000000  0.62500000  0.37500000  1.0
  P5+  P1  1  0.75000000  0.12500000  0.87500000  1.0
  P5+  P1  1  0.75000000  0.62500000  0.87500000  1.0
  S2-  S1  1  0.35163000  0.22206000  0.37500000  1.0
  S2-  S1  1  0.35163000  0.72206000  0.37500000  1.0
  S2-  S1  1  0.35163000  0.22206000  0.87500000  1.0
  S2-  S1  1  0.35163000  0.72206000  0.87500000  1.0
  S2-  S1  1  0.85163000  0.22206000  0.37500000  1.0
  S2-  S1  1  0.85163000  0.72206000  0.37500000  1.0
  S2-  S1  1  0.85163000  0.22206000  0.87500000  1.0
  S2-  S1  1  0.85163000  0.72206000  0.87500000  1.0
  S2-  S1  1  0.35163000  0.02794000  0.37500000  1.0
  S2-  S1  1  0.35163000  0.52794000  0.37500000  1.0
  S2-  S1  1  0.35163000  0.02794000  0.87500000  1.0
  S2-  S1  1  0.35163000  0.52794000  0.87500000  1.0
  S2-  S1  1  0.85163000  0.02794000  0.37500000  1.0
  S2-  S1  1  0.85163000  0.52794000  0.37500000  1.0
  S2-  S1  1  0.85163000  0.02794000  0.87500000  1.0
  S2-  S1  1  0.85163000  0.52794000  0.87500000  1.0
  S2-  S1  1  0.35163000  0.37500000  0.22206000  1.0
  S2-  S1  1  0.35163000  0.87500000  0.22206000  1.0
  S2-  S1  1  0.35163000  0.37500000  0.72206000  1.0
  S2-  S1  1  0.35163000  0.87500000  0.72206000  1.0
  S2-  S1  1  0.85163000  0.37500000  0.22206000  1.0
  S2-  S1  1  0.85163000  0.87500000  0.22206000  1.0
  S2-  S1  1  0.85163000  0.37500000  0.72206000  1.0
  S2-  S1  1  0.85163000  0.87500000  0.72206000  1.0
  S2-  S1  1  0.35163000  0.37500000  0.02794000  1.0
  S2-  S1  1  0.35163000  0.87500000  0.02794000  1.0
  S2-  S1  1  0.35163000  0.37500000  0.52794000  1.0
  S2-  S1  1  0.35163000  0.87500000  0.52794000  1.0
  S2-  S1  1  0.85163000  0.37500000  0.02794000  1.0
  S2-  S1  1  0.85163000  0.87500000  0.02794000  1.0
  S2-  S1  1  0.85163000  0.37500000  0.52794000  1.0
  S2-  S1  1  0.85163000  0.87500000  0.52794000  1.0
  S2-  S1  1  0.14837000  0.27794000  0.12500000  1.0
  S2-  S1  1  0.14837000  0.77794000  0.12500000  1.0
  S2-  S1  1  0.14837000  0.27794000  0.62500000  1.0
  S2-  S1  1  0.14837000  0.77794000  0.62500000  1.0
  S2-  S1  1  0.64837000  0.27794000  0.12500000  1.0
  S2-  S1  1  0.64837000  0.77794000  0.12500000  1.0
  S2-  S1  1  0.64837000  0.27794000  0.62500000  1.0
  S2-  S1  1  0.64837000  0.77794000  0.62500000  1.0
  S2-  S1  1  0.14837000  0.47206000  0.12500000  1.0
  S2-  S1  1  0.14837000  0.97206000  0.12500000  1.0
  S2-  S1  1  0.14837000  0.47206000  0.62500000  1.0
  S2-  S1  1  0.14837000  0.97206000  0.62500000  1.0
  S2-  S1  1  0.64837000  0.47206000  0.12500000  1.0
  S2-  S1  1  0.64837000  0.97206000  0.12500000  1.0
  S2-  S1  1  0.64837000  0.47206000  0.62500000  1.0
  S2-  S1  1  0.64837000  0.97206000  0.62500000  1.0
  S2-  S1  1  0.14837000  0.12500000  0.27794000  1.0
  S2-  S1  1  0.14837000  0.62500000  0.27794000  1.0
  S2-  S1  1  0.14837000  0.12500000  0.77794000  1.0
  S2-  S1  1  0.14837000  0.62500000  0.77794000  1.0
  S2-  S1  1  0.64837000  0.12500000  0.27794000  1.0
  S2-  S1  1  0.64837000  0.62500000  0.27794000  1.0
  S2-  S1  1  0.64837000  0.12500000  0.77794000  1.0
  S2-  S1  1  0.64837000  0.62500000  0.77794000  1.0
  S2-  S1  1  0.14837000  0.12500000  0.47206000  1.0
  S2-  S1  1  0.14837000  0.62500000  0.47206000  1.0
  S2-  S1  1  0.14837000  0.12500000  0.97206000  1.0
  S2-  S1  1  0.14837000  0.62500000  0.97206000  1.0
  S2-  S1  1  0.64837000  0.12500000  0.47206000  1.0
  S2-  S1  1  0.64837000  0.62500000  0.47206000  1.0
  S2-  S1  1  0.64837000  0.12500000  0.97206000  1.0
  S2-  S1  1  0.64837000  0.62500000  0.97206000  1.0
  I-  I1  1  0.42351000  0.12500000  0.12500000  1.0
  I-  I1  1  0.42351000  0.62500000  0.12500000  1.0
  I-  I1  1  0.42351000  0.12500000  0.62500000  1.0
  I-  I1  1  0.42351000  0.62500000  0.62500000  1.0
  I-  I1  1  0.92351000  0.12500000  0.12500000  1.0
  I-  I1  1  0.92351000  0.62500000  0.12500000  1.0
  I-  I1  1  0.92351000  0.12500000  0.62500000  1.0
  I-  I1  1  0.92351000  0.62500000  0.62500000  1.0
  I-  I1  1  0.07649000  0.37500000  0.37500000  1.0
  I-  I1  1  0.07649000  0.87500000  0.37500000  1.0
  I-  I1  1  0.07649000  0.37500000  0.87500000  1.0
  I-  I1  1  0.07649000  0.87500000  0.87500000  1.0
  I-  I1  1  0.57649000  0.37500000  0.37500000  1.0
  I-  I1  1  0.57649000  0.87500000  0.37500000  1.0
  I-  I1  1  0.57649000  0.37500000  0.87500000  1.0
  I-  I1  1  0.57649000  0.87500000  0.87500000  1.0
