# generated using pymatgen
data_Li4SnS4
_symmetry_space_group_name_H-M   'P 1'
_cell_length_a   12.78272000
_cell_length_b   13.82270000
_cell_length_c   15.98280000
_cell_angle_alpha   90.00000000
_cell_angle_beta   90.00000000
_cell_angle_gamma   90.00000000
_symmetry_Int_Tables_number   1
_chemical_formula_structural   Li4SnS4
_chemical_formula_sum   'Li64 Sn16 S64'
_cell_volume   2824.02816260
_cell_formula_units_Z   16
loop_
 _symmetry_equiv_pos_site_id
 _symmetry_equiv_pos_as_xyz
  1  'x, y, z'
loop_
 _atom_type_symbol
 _atom_type_oxidation_number
  Li+  1.0
  Sn4+  4.0
  S2-  -2.0
loop_
 _atom_site_type_symbol
 _atom_site_label
 _atom_site_symmetry_multiplicity
 _atom_site_fract_x
 _atom_site_fract_y
 _atom_site_fract_z
 _atom_site_occupancy
  Li+  Li0  1  0.42400000  0.43710000  0.62500000  1.0
  Li+  Li1  1  0.42400000  0.43710000  0.12500000  1.0
  Li+  Li2  1  0.92400000  0.43710000  0.62500000  1.0
  Li+  Li3  1  0.92400000  0.43710000  0.12500000  1.0
  Li+  Li4  1  0.07600000  0.56290000  0.37500000  1.0
  Li+  Li5  1  0.07600000  0.56290000  0.87500000  1.0
  Li+  Li6  1  0.57617247  0.56549826  0.37397877  1.0
  Li+  Li7  1  0.57600000  0.56290000  0.87500000  1.0
  Li+  Li8  1  0.17150671  0.06346890  0.37562807  1.0
  Li+  Li9  1  0.17400000  0.06290000  0.87500000  1.0
  Li+  Li10  1  0.67400000  0.06290000  0.37500000  1.0
  Li+  Li11  1  0.67400000  0.06290000  0.87500000  1.0
  Li+  Li12  1  0.33402788  0.93655076  0.62831793  1.0
  Li+  Li13  1  0.32600000  0.93710000  0.12500000  1.0
  Li+  Li14  1  0.82600000  0.93710000  0.62500000  1.0
  Li+  Li15  1  0.82665553  0.93748209  0.12138813  1.0
  Li+  Li16  1  0.32815000  0.16160000  0.74670000  1.0
  Li+  Li17  1  0.32815000  0.16160000  0.24670000  1.0
  Li+  Li18  1  0.82815000  0.16160000  0.74670000  1.0
  Li+  Li19  1  0.82815000  0.16160000  0.24670000  1.0
  Li+  Li20  1  0.17185000  0.83840000  0.49670000  1.0
  Li+  Li21  1  0.17185000  0.83840000  0.99670000  1.0
  Li+  Li22  1  0.67185000  0.83840000  0.49670000  1.0
  Li+  Li23  1  0.66620905  0.83866209  0.99552072  1.0
  Li+  Li24  1  0.07815000  0.33840000  0.25330000  1.0
  Li+  Li25  1  0.07815000  0.33840000  0.75330000  1.0
  Li+  Li26  1  0.57815000  0.33840000  0.25330000  1.0
  Li+  Li27  1  0.57815000  0.33840000  0.75330000  1.0
  Li+  Li28  1  0.07994901  0.34041952  0.49807430  1.0
  Li+  Li29  1  0.07815000  0.33840000  0.99670000  1.0
  Li+  Li30  1  0.57815000  0.33840000  0.49670000  1.0
  Li+  Li31  1  0.57815000  0.33840000  0.99670000  1.0
  Li+  Li32  1  0.32815000  0.16160000  0.50330000  1.0
  Li+  Li33  1  0.32815000  0.16160000  0.00330000  1.0
  Li+  Li34  1  0.82815000  0.16160000  0.50330000  1.0
  Li+  Li35  1  0.82815000  0.16160000  0.00330000  1.0
  Li+  Li36  1  0.17185000  0.83840000  0.25330000  1.0
  Li+  Li37  1  0.17185000  0.83840000  0.75330000  1.0
  Li+  Li38  1  0.67185000  0.83840000  0.25330000  1.0
  Li+  Li39  1  0.67185000  0.83840000  0.75330000  1.0
  Li+  Li40  1  0.42185000  0.66160000  0.50330000  1.0
  Li+  Li41  1  0.42185000  0.66160000  0.00330000  1.0
  Li+  Li42  1  0.92185000  0.66160000  0.50330000  1.0
  Li+  Li43  1  0.92185000  0.66160000  0.00330000  1.0
  Li+  Li44  1  0.42185000  0.66160000  0.74670000  1.0
  Li+  Li45  1  0.42185000  0.66160000  0.24670000  1.0
  Li+  Li46  1  0.92133791  0.65769807  0.74698073  1.0
  Li+  Li47  1  0.92185000  0.66160000  0.24670000  1.0
  Li+  Li48  1  0.73879300  0.03955884  0.48601563  1.0
  Li+  Li49  1  0.73410220  0.03552404  0.98785623  1.0
  Li+  Li50  1  0.00838641  0.53307628  0.26696002  1.0
  Li+  Li51  1  0.01150000  0.53500000  0.76450000  1.0
  Li+  Li52  1  0.51150000  0.53500000  0.48550000  1.0
  Li+  Li53  1  0.51150000  0.53500000  0.98550000  1.0
  Li+  Li54  1  0.23850000  0.03500000  0.26450000  1.0
  Li+  Li55  1  0.24290453  0.03460306  0.76506973  1.0
  Li+  Li56  1  0.23950000  0.70590000  0.37500000  1.0
  Li+  Li57  1  0.23950000  0.70590000  0.87500000  1.0
  Li+  Li58  1  0.73980808  0.70642414  0.37131795  1.0
  Li+  Li59  1  0.73950000  0.70590000  0.87500000  1.0
  Li+  Li60  1  0.26050000  0.29410000  0.62500000  1.0
  Li+  Li61  1  0.25553024  0.29290898  0.12217672  1.0
  Li+  Li62  1  0.75878975  0.29540168  0.62656395  1.0
  Li+  Li63  1  0.76050000  0.29410000  0.12500000  1.0
  Sn4+  Sn64  1  0.31820000  0.41260000  0.37500000  1.0
  Sn4+  Sn65  1  0.31820000  0.41260000  0.87500000  1.0
  Sn4+  Sn66  1  0.82357938  0.41372943  0.37455778  1.0
  Sn4+  Sn67  1  0.81820000  0.41260000  0.87500000  1.0
  Sn4+  Sn68  1  0.18112828  0.58739258  0.62259084  1.0
  Sn4+  Sn69  1  0.18180000  0.58740000  0.12500000  1.0
  Sn4+  Sn70  1  0.68579255  0.58905934  0.62892327  1.0
  Sn4+  Sn71  1  0.68180000  0.58740000  0.12500000  1.0
  Sn4+  Sn72  1  0.06820000  0.08740000  0.62500000  1.0
  Sn4+  Sn73  1  0.06900450  0.08696903  0.12816495  1.0
  Sn4+  Sn74  1  0.57348207  0.08921920  0.62916967  1.0
  Sn4+  Sn75  1  0.56820000  0.08740000  0.12500000  1.0
  Sn4+  Sn76  1  0.43180000  0.91260000  0.37500000  1.0
  Sn4+  Sn77  1  0.43820181  0.91122481  0.87648873  1.0
  Sn4+  Sn78  1  0.93180000  0.91260000  0.37500000  1.0
  Sn4+  Sn79  1  0.93180000  0.91260000  0.87500000  1.0
  S2-  S80  1  0.38375000  0.33170000  0.25365000  1.0
  S2-  S81  1  0.38788048  0.32973577  0.75586714  1.0
  S2-  S82  1  0.88375000  0.33170000  0.25365000  1.0
  S2-  S83  1  0.88375000  0.33170000  0.75365000  1.0
  S2-  S84  1  0.11625000  0.66830000  0.50365000  1.0
  S2-  S85  1  0.11625000  0.66830000  0.00365000  1.0
  S2-  S86  1  0.61625000  0.66830000  0.50365000  1.0
  S2-  S87  1  0.61625000  0.66830000  0.00365000  1.0
  S2-  S88  1  0.13375000  0.16830000  0.74635000  1.0
  S2-  S89  1  0.13375000  0.16830000  0.24635000  1.0
  S2-  S90  1  0.63375000  0.16830000  0.74635000  1.0
  S2-  S91  1  0.63502129  0.16965281  0.24557901  1.0
  S2-  S92  1  0.13375000  0.16830000  0.50365000  1.0
  S2-  S93  1  0.13375000  0.16830000  0.00365000  1.0
  S2-  S94  1  0.63307792  0.16686854  0.50581251  1.0
  S2-  S95  1  0.63375000  0.16830000  0.00365000  1.0
  S2-  S96  1  0.38375000  0.33170000  0.49635000  1.0
  S2-  S97  1  0.38655830  0.33314184  0.00003379  1.0
  S2-  S98  1  0.88395434  0.33172575  0.50051599  1.0
  S2-  S99  1  0.88375000  0.33170000  0.99635000  1.0
  S2-  S100  1  0.11625000  0.66830000  0.74635000  1.0
  S2-  S101  1  0.11625000  0.66830000  0.24635000  1.0
  S2-  S102  1  0.61625000  0.66830000  0.74635000  1.0
  S2-  S103  1  0.61625000  0.66830000  0.24635000  1.0
  S2-  S104  1  0.36625000  0.83170000  0.49635000  1.0
  S2-  S105  1  0.36625000  0.83170000  0.99635000  1.0
  S2-  S106  1  0.86075519  0.82799377  0.49165095  1.0
  S2-  S107  1  0.86625000  0.83170000  0.99635000  1.0
  S2-  S108  1  0.36625000  0.83170000  0.25365000  1.0
  S2-  S109  1  0.36625000  0.83170000  0.75365000  1.0
  S2-  S110  1  0.86625000  0.83170000  0.25365000  1.0
  S2-  S111  1  0.86625000  0.83170000  0.75365000  1.0
  S2-  S112  1  0.38470000  0.09320000  0.62500000  1.0
  S2-  S113  1  0.38470000  0.09320000  0.12500000  1.0
  S2-  S114  1  0.88922520  0.09229355  0.62346808  1.0
  S2-  S115  1  0.88244514  0.09719172  0.12591276  1.0
  S2-  S116  1  0.11530000  0.90680000  0.37500000  1.0
  S2-  S117  1  0.11706880  0.90218232  0.87651495  1.0
  S2-  S118  1  0.61856067  0.90428272  0.37641627  1.0
  S2-  S119  1  0.61530000  0.90680000  0.87500000  1.0
  S2-  S120  1  0.13613643  0.40354529  0.37522074  1.0
  S2-  S121  1  0.13470000  0.40680000  0.87500000  1.0
  S2-  S122  1  0.63470000  0.40680000  0.37500000  1.0
  S2-  S123  1  0.63470000  0.40680000  0.87500000  1.0
  S2-  S124  1  0.36530000  0.59320000  0.62500000  1.0
  S2-  S125  1  0.36348543  0.59648001  0.12194549  1.0
  S2-  S126  1  0.86530000  0.59320000  0.62500000  1.0
  S2-  S127  1  0.86530000  0.59320000  0.12500000  1.0
  S2-  S128  1  0.37001403  0.07736061  0.36888813  1.0
  S2-  S129  1  0.36950000  0.07450000  0.87500000  1.0
  S2-  S130  1  0.86950000  0.07450000  0.37500000  1.0
  S2-  S131  1  0.86950000  0.07450000  0.87500000  1.0
  S2-  S132  1  0.13050000  0.92550000  0.62500000  1.0
  S2-  S133  1  0.13294473  0.92448913  0.12422093  1.0
  S2-  S134  1  0.63050000  0.92550000  0.62500000  1.0
  S2-  S135  1  0.63056577  0.92120100  0.12290292  1.0
  S2-  S136  1  0.11950000  0.42550000  0.62500000  1.0
  S2-  S137  1  0.11950000  0.42550000  0.12500000  1.0
  S2-  S138  1  0.61950000  0.42550000  0.62500000  1.0
  S2-  S139  1  0.61950000  0.42550000  0.12500000  1.0
  S2-  S140  1  0.38050000  0.57450000  0.37500000  1.0
  S2-  S141  1  0.38188870  0.57334798  0.87327741  1.0
  S2-  S142  1  0.88050000  0.57450000  0.37500000  1.0
  S2-  S143  1  0.88050000  0.57450000  0.87500000  1.0
