# generated using pymatgen
data_Li4SnS4
_symmetry_space_group_name_H-M   'P 1'
_cell_length_a   16.12125314
_cell_length_b   12.89345202
_cell_length_c   13.94244099
_cell_angle_alpha   90.00000000
_cell_angle_beta   90.00000000
_cell_angle_gamma   90.00000000
_symmetry_Int_Tables_number   1
_chemical_formula_structural   Li4SnS4
_chemical_formula_sum   'Li64 Sn16 S64'
_cell_volume   2898.05631862
_cell_formula_units_Z   16
loop_
 _symmetry_equiv_pos_site_id
 _symmetry_equiv_pos_as_xyz
  1  'x, y, z'
loop_
 _atom_type_symbol
 _atom_type_oxidation_number
  Li+  1.0
  Sn4+  4.0
  S2-  -2.0
loop_
 _atom_site_type_symbol
 _atom_site_label
 _atom_site_symmetry_multiplicity
 _atom_site_fract_x
 _atom_site_fract_y
 _atom_site_fract_z
 _atom_site_occupancy
  Li+  Li0  1  0.87500000  0.24266667  0.56290000  1.0
  Li+  Li1  1  0.37500000  0.24266667  0.56290000  1.0
  Li+  Li2  1  0.87500000  0.74266667  0.56290000  1.0
  Li+  Li3  1  0.37500000  0.74266667  0.56290000  1.0
  Li+  Li4  1  0.62500000  0.59066667  0.43710000  1.0
  Li+  Li5  1  0.12500000  0.59066667  0.43710000  1.0
  Li+  Li6  1  0.62500000  0.09066667  0.43710000  1.0
  Li+  Li7  1  0.12500000  0.09066667  0.43710000  1.0
  Li+  Li8  1  0.62500000  0.49266667  0.93710000  1.0
  Li+  Li9  1  0.12500000  0.49266667  0.93710000  1.0
  Li+  Li10  1  0.62500000  0.99266667  0.93710000  1.0
  Li+  Li11  1  0.12500000  0.99266667  0.93710000  1.0
  Li+  Li12  1  0.87500000  0.34066667  0.06290000  1.0
  Li+  Li13  1  0.37500000  0.34066667  0.06290000  1.0
  Li+  Li14  1  0.87500000  0.84066667  0.06290000  1.0
  Li+  Li15  1  0.37500000  0.84066667  0.06290000  1.0
  Li+  Li16  1  0.99670000  0.33851667  0.83840000  1.0
  Li+  Li17  1  0.49670000  0.33851667  0.83840000  1.0
  Li+  Li18  1  0.99670000  0.83851667  0.83840000  1.0
  Li+  Li19  1  0.49670000  0.83851667  0.83840000  1.0
  Li+  Li20  1  0.74670000  0.49481667  0.16160000  1.0
  Li+  Li21  1  0.24670000  0.49481667  0.16160000  1.0
  Li+  Li22  1  0.74670000  0.99481667  0.16160000  1.0
  Li+  Li23  1  0.24670000  0.99481667  0.16160000  1.0
  Li+  Li24  1  0.50330000  0.58851667  0.66160000  1.0
  Li+  Li25  1  0.00330000  0.58851667  0.66160000  1.0
  Li+  Li26  1  0.50330000  0.08851667  0.66160000  1.0
  Li+  Li27  1  0.00330000  0.08851667  0.66160000  1.0
  Li+  Li28  1  0.74670000  0.58851667  0.66160000  1.0
  Li+  Li29  1  0.24670000  0.58851667  0.66160000  1.0
  Li+  Li30  1  0.74670000  0.08851667  0.66160000  1.0
  Li+  Li31  1  0.24670000  0.08851667  0.66160000  1.0
  Li+  Li32  1  0.75330000  0.33851667  0.83840000  1.0
  Li+  Li33  1  0.25330000  0.33851667  0.83840000  1.0
  Li+  Li34  1  0.75330000  0.83851667  0.83840000  1.0
  Li+  Li35  1  0.25330000  0.83851667  0.83840000  1.0
  Li+  Li36  1  0.50330000  0.49481667  0.16160000  1.0
  Li+  Li37  1  0.00330000  0.49481667  0.16160000  1.0
  Li+  Li38  1  0.50330000  0.99481667  0.16160000  1.0
  Li+  Li39  1  0.00330000  0.99481667  0.16160000  1.0
  Li+  Li40  1  0.75330000  0.24481667  0.33840000  1.0
  Li+  Li41  1  0.25330000  0.24481667  0.33840000  1.0
  Li+  Li42  1  0.75330000  0.74481667  0.33840000  1.0
  Li+  Li43  1  0.25330000  0.74481667  0.33840000  1.0
  Li+  Li44  1  0.99670000  0.24481667  0.33840000  1.0
  Li+  Li45  1  0.49670000  0.24481667  0.33840000  1.0
  Li+  Li46  1  0.99670000  0.74481667  0.33840000  1.0
  Li+  Li47  1  0.49670000  0.74481667  0.33840000  1.0
  Li+  Li48  1  0.73550000  0.92816667  0.96500000  1.0
  Li+  Li49  1  0.23550000  0.92816667  0.96500000  1.0
  Li+  Li50  1  0.51450000  0.65516667  0.46500000  1.0
  Li+  Li51  1  0.01450000  0.65516667  0.46500000  1.0
  Li+  Li52  1  0.73550000  0.15516667  0.46500000  1.0
  Li+  Li53  1  0.23550000  0.15516667  0.46500000  1.0
  Li+  Li54  1  0.51450000  0.42816667  0.96500000  1.0
  Li+  Li55  1  0.01450000  0.42816667  0.96500000  1.0
  Li+  Li56  1  0.62500000  0.42716667  0.29410000  1.0
  Li+  Li57  1  0.12500000  0.42716667  0.29410000  1.0
  Li+  Li58  1  0.62500000  0.92716667  0.29410000  1.0
  Li+  Li59  1  0.12500000  0.92716667  0.29410000  1.0
  Li+  Li60  1  0.87500000  0.40616667  0.70590000  1.0
  Li+  Li61  1  0.37500000  0.40616667  0.70590000  1.0
  Li+  Li62  1  0.87500000  0.90616667  0.70590000  1.0
  Li+  Li63  1  0.37500000  0.90616667  0.70590000  1.0
  Sn4+  Sn64  1  0.62500000  0.34846667  0.58740000  1.0
  Sn4+  Sn65  1  0.12500000  0.34846667  0.58740000  1.0
  Sn4+  Sn66  1  0.62500000  0.84846667  0.58740000  1.0
  Sn4+  Sn67  1  0.12500000  0.84846667  0.58740000  1.0
  Sn4+  Sn68  1  0.87500000  0.48486667  0.41260000  1.0
  Sn4+  Sn69  1  0.37500000  0.48486667  0.41260000  1.0
  Sn4+  Sn70  1  0.87500000  0.98486667  0.41260000  1.0
  Sn4+  Sn71  1  0.37500000  0.98486667  0.41260000  1.0
  Sn4+  Sn72  1  0.87500000  0.59846667  0.91260000  1.0
  Sn4+  Sn73  1  0.37500000  0.59846667  0.91260000  1.0
  Sn4+  Sn74  1  0.87500000  0.09846667  0.91260000  1.0
  Sn4+  Sn75  1  0.37500000  0.09846667  0.91260000  1.0
  Sn4+  Sn76  1  0.62500000  0.23486667  0.08740000  1.0
  Sn4+  Sn77  1  0.12500000  0.23486667  0.08740000  1.0
  Sn4+  Sn78  1  0.62500000  0.73486667  0.08740000  1.0
  Sn4+  Sn79  1  0.12500000  0.73486667  0.08740000  1.0
  S2-  S80  1  0.50365000  0.28291667  0.66830000  1.0
  S2-  S81  1  0.00365000  0.28291667  0.66830000  1.0
  S2-  S82  1  0.50365000  0.78291667  0.66830000  1.0
  S2-  S83  1  0.00365000  0.78291667  0.66830000  1.0
  S2-  S84  1  0.75365000  0.55041667  0.33170000  1.0
  S2-  S85  1  0.25365000  0.55041667  0.33170000  1.0
  S2-  S86  1  0.75365000  0.05041667  0.33170000  1.0
  S2-  S87  1  0.25365000  0.05041667  0.33170000  1.0
  S2-  S88  1  0.99635000  0.53291667  0.83170000  1.0
  S2-  S89  1  0.49635000  0.53291667  0.83170000  1.0
  S2-  S90  1  0.99635000  0.03291667  0.83170000  1.0
  S2-  S91  1  0.49635000  0.03291667  0.83170000  1.0
  S2-  S92  1  0.75365000  0.53291667  0.83170000  1.0
  S2-  S93  1  0.25365000  0.53291667  0.83170000  1.0
  S2-  S94  1  0.75365000  0.03291667  0.83170000  1.0
  S2-  S95  1  0.25365000  0.03291667  0.83170000  1.0
  S2-  S96  1  0.74635000  0.28291667  0.66830000  1.0
  S2-  S97  1  0.24635000  0.28291667  0.66830000  1.0
  S2-  S98  1  0.74635000  0.78291667  0.66830000  1.0
  S2-  S99  1  0.24635000  0.78291667  0.66830000  1.0
  S2-  S100  1  0.99635000  0.55041667  0.33170000  1.0
  S2-  S101  1  0.49635000  0.55041667  0.33170000  1.0
  S2-  S102  1  0.99635000  0.05041667  0.33170000  1.0
  S2-  S103  1  0.49635000  0.05041667  0.33170000  1.0
  S2-  S104  1  0.74635000  0.30041667  0.16830000  1.0
  S2-  S105  1  0.24635000  0.30041667  0.16830000  1.0
  S2-  S106  1  0.74635000  0.80041667  0.16830000  1.0
  S2-  S107  1  0.24635000  0.80041667  0.16830000  1.0
  S2-  S108  1  0.50365000  0.30041667  0.16830000  1.0
  S2-  S109  1  0.00365000  0.30041667  0.16830000  1.0
  S2-  S110  1  0.50365000  0.80041667  0.16830000  1.0
  S2-  S111  1  0.00365000  0.80041667  0.16830000  1.0
  S2-  S112  1  0.87500000  0.28196667  0.90680000  1.0
  S2-  S113  1  0.37500000  0.28196667  0.90680000  1.0
  S2-  S114  1  0.87500000  0.78196667  0.90680000  1.0
  S2-  S115  1  0.37500000  0.78196667  0.90680000  1.0
  S2-  S116  1  0.62500000  0.55136667  0.09320000  1.0
  S2-  S117  1  0.12500000  0.55136667  0.09320000  1.0
  S2-  S118  1  0.62500000  0.05136667  0.09320000  1.0
  S2-  S119  1  0.12500000  0.05136667  0.09320000  1.0
  S2-  S120  1  0.62500000  0.53196667  0.59320000  1.0
  S2-  S121  1  0.12500000  0.53196667  0.59320000  1.0
  S2-  S122  1  0.62500000  0.03196667  0.59320000  1.0
  S2-  S123  1  0.12500000  0.03196667  0.59320000  1.0
  S2-  S124  1  0.87500000  0.30136667  0.40680000  1.0
  S2-  S125  1  0.37500000  0.30136667  0.40680000  1.0
  S2-  S126  1  0.87500000  0.80136667  0.40680000  1.0
  S2-  S127  1  0.37500000  0.80136667  0.40680000  1.0
  S2-  S128  1  0.62500000  0.29716667  0.92550000  1.0
  S2-  S129  1  0.12500000  0.29716667  0.92550000  1.0
  S2-  S130  1  0.62500000  0.79716667  0.92550000  1.0
  S2-  S131  1  0.12500000  0.79716667  0.92550000  1.0
  S2-  S132  1  0.87500000  0.53616667  0.07450000  1.0
  S2-  S133  1  0.37500000  0.53616667  0.07450000  1.0
  S2-  S134  1  0.87500000  0.03616667  0.07450000  1.0
  S2-  S135  1  0.37500000  0.03616667  0.07450000  1.0
  S2-  S136  1  0.87500000  0.54716667  0.57450000  1.0
  S2-  S137  1  0.37500000  0.54716667  0.57450000  1.0
  S2-  S138  1  0.87500000  0.04716667  0.57450000  1.0
  S2-  S139  1  0.37500000  0.04716667  0.57450000  1.0
  S2-  S140  1  0.62500000  0.28616667  0.42550000  1.0
  S2-  S141  1  0.12500000  0.28616667  0.42550000  1.0
  S2-  S142  1  0.62500000  0.78616667  0.42550000  1.0
  S2-  S143  1  0.12500000  0.78616667  0.42550000  1.0
