# generated using pymatgen
data_Li4SnS4
_symmetry_space_group_name_H-M   'P 1'
_cell_length_a   12.78272000
_cell_length_b   15.98280000
_cell_length_c   13.82270000
_cell_angle_alpha   90.00000000
_cell_angle_beta   90.00000000
_cell_angle_gamma   90.00000000
_symmetry_Int_Tables_number   1
_chemical_formula_structural   Li4SnS4
_chemical_formula_sum   'Li64 Sn16 S64'
_cell_volume   2824.02816260
_cell_formula_units_Z   16
loop_
 _symmetry_equiv_pos_site_id
 _symmetry_equiv_pos_as_xyz
  1  'x, y, z'
loop_
 _atom_type_symbol
 _atom_type_oxidation_number
  Li+  1.0
  Sn4+  4.0
  S2-  -2.0
loop_
 _atom_site_type_symbol
 _atom_site_label
 _atom_site_symmetry_multiplicity
 _atom_site_fract_x
 _atom_site_fract_y
 _atom_site_fract_z
 _atom_site_occupancy
  Li+  Li1  1  0.42400000  0.12500000  0.56290000  1.0
  Li+  Li1  1  0.42400000  0.62500000  0.56290000  1.0
  Li+  Li1  1  0.92400000  0.12500000  0.56290000  1.0
  Li+  Li1  1  0.92400000  0.62500000  0.56290000  1.0
  Li+  Li1  1  0.07600000  0.37500000  0.43710000  1.0
  Li+  Li1  1  0.07600000  0.87500000  0.43710000  1.0
  Li+  Li1  1  0.57600000  0.37500000  0.43710000  1.0
  Li+  Li1  1  0.57600000  0.87500000  0.43710000  1.0
  Li+  Li1  1  0.17400000  0.37500000  0.93710000  1.0
  Li+  Li1  1  0.17400000  0.87500000  0.93710000  1.0
  Li+  Li1  1  0.67400000  0.37500000  0.93710000  1.0
  Li+  Li1  1  0.67400000  0.87500000  0.93710000  1.0
  Li+  Li1  1  0.32600000  0.12500000  0.06290000  1.0
  Li+  Li1  1  0.32600000  0.62500000  0.06290000  1.0
  Li+  Li1  1  0.82600000  0.12500000  0.06290000  1.0
  Li+  Li1  1  0.82600000  0.62500000  0.06290000  1.0
  Li+  Li2  1  0.32815000  0.00330000  0.83840000  1.0
  Li+  Li2  1  0.32815000  0.50330000  0.83840000  1.0
  Li+  Li2  1  0.82815000  0.00330000  0.83840000  1.0
  Li+  Li2  1  0.82815000  0.50330000  0.83840000  1.0
  Li+  Li2  1  0.17185000  0.25330000  0.16160000  1.0
  Li+  Li2  1  0.17185000  0.75330000  0.16160000  1.0
  Li+  Li2  1  0.67185000  0.25330000  0.16160000  1.0
  Li+  Li2  1  0.67185000  0.75330000  0.16160000  1.0
  Li+  Li2  1  0.07815000  0.49670000  0.66160000  1.0
  Li+  Li2  1  0.07815000  0.99670000  0.66160000  1.0
  Li+  Li2  1  0.57815000  0.49670000  0.66160000  1.0
  Li+  Li2  1  0.57815000  0.99670000  0.66160000  1.0
  Li+  Li2  1  0.07815000  0.25330000  0.66160000  1.0
  Li+  Li2  1  0.07815000  0.75330000  0.66160000  1.0
  Li+  Li2  1  0.57815000  0.25330000  0.66160000  1.0
  Li+  Li2  1  0.57815000  0.75330000  0.66160000  1.0
  Li+  Li2  1  0.32815000  0.24670000  0.83840000  1.0
  Li+  Li2  1  0.32815000  0.74670000  0.83840000  1.0
  Li+  Li2  1  0.82815000  0.24670000  0.83840000  1.0
  Li+  Li2  1  0.82815000  0.74670000  0.83840000  1.0
  Li+  Li2  1  0.17185000  0.49670000  0.16160000  1.0
  Li+  Li2  1  0.17185000  0.99670000  0.16160000  1.0
  Li+  Li2  1  0.67185000  0.49670000  0.16160000  1.0
  Li+  Li2  1  0.67185000  0.99670000  0.16160000  1.0
  Li+  Li2  1  0.42185000  0.24670000  0.33840000  1.0
  Li+  Li2  1  0.42185000  0.74670000  0.33840000  1.0
  Li+  Li2  1  0.92185000  0.24670000  0.33840000  1.0
  Li+  Li2  1  0.92185000  0.74670000  0.33840000  1.0
  Li+  Li2  1  0.42185000  0.00330000  0.33840000  1.0
  Li+  Li2  1  0.42185000  0.50330000  0.33840000  1.0
  Li+  Li2  1  0.92185000  0.00330000  0.33840000  1.0
  Li+  Li2  1  0.92185000  0.50330000  0.33840000  1.0
  Li+  Li24  1  0.73850000  0.26450000  0.96500000  1.0
  Li+  Li24  1  0.73850000  0.76450000  0.96500000  1.0
  Li+  Li25  1  0.01150000  0.48550000  0.46500000  1.0
  Li+  Li25  1  0.01150000  0.98550000  0.46500000  1.0
  Li+  Li26  1  0.51150000  0.26450000  0.46500000  1.0
  Li+  Li26  1  0.51150000  0.76450000  0.46500000  1.0
  Li+  Li27  1  0.23850000  0.48550000  0.96500000  1.0
  Li+  Li27  1  0.23850000  0.98550000  0.96500000  1.0
  Li+  Li28  1  0.23950000  0.37500000  0.29410000  1.0
  Li+  Li28  1  0.23950000  0.87500000  0.29410000  1.0
  Li+  Li29  1  0.73950000  0.37500000  0.29410000  1.0
  Li+  Li29  1  0.73950000  0.87500000  0.29410000  1.0
  Li+  Li30  1  0.26050000  0.12500000  0.70590000  1.0
  Li+  Li30  1  0.26050000  0.62500000  0.70590000  1.0
  Li+  Li31  1  0.76050000  0.12500000  0.70590000  1.0
  Li+  Li31  1  0.76050000  0.62500000  0.70590000  1.0
  Sn4+  Sn1  1  0.31820000  0.37500000  0.58740000  1.0
  Sn4+  Sn1  1  0.31820000  0.87500000  0.58740000  1.0
  Sn4+  Sn1  1  0.81820000  0.37500000  0.58740000  1.0
  Sn4+  Sn1  1  0.81820000  0.87500000  0.58740000  1.0
  Sn4+  Sn1  1  0.18180000  0.12500000  0.41260000  1.0
  Sn4+  Sn1  1  0.18180000  0.62500000  0.41260000  1.0
  Sn4+  Sn1  1  0.68180000  0.12500000  0.41260000  1.0
  Sn4+  Sn1  1  0.68180000  0.62500000  0.41260000  1.0
  Sn4+  Sn1  1  0.06820000  0.12500000  0.91260000  1.0
  Sn4+  Sn1  1  0.06820000  0.62500000  0.91260000  1.0
  Sn4+  Sn1  1  0.56820000  0.12500000  0.91260000  1.0
  Sn4+  Sn1  1  0.56820000  0.62500000  0.91260000  1.0
  Sn4+  Sn1  1  0.43180000  0.37500000  0.08740000  1.0
  Sn4+  Sn1  1  0.43180000  0.87500000  0.08740000  1.0
  Sn4+  Sn1  1  0.93180000  0.37500000  0.08740000  1.0
  Sn4+  Sn1  1  0.93180000  0.87500000  0.08740000  1.0
  S2-  S1  1  0.38375000  0.49635000  0.66830000  1.0
  S2-  S1  1  0.38375000  0.99635000  0.66830000  1.0
  S2-  S1  1  0.88375000  0.49635000  0.66830000  1.0
  S2-  S1  1  0.88375000  0.99635000  0.66830000  1.0
  S2-  S1  1  0.11625000  0.24635000  0.33170000  1.0
  S2-  S1  1  0.11625000  0.74635000  0.33170000  1.0
  S2-  S1  1  0.61625000  0.24635000  0.33170000  1.0
  S2-  S1  1  0.61625000  0.74635000  0.33170000  1.0
  S2-  S1  1  0.13375000  0.00365000  0.83170000  1.0
  S2-  S1  1  0.13375000  0.50365000  0.83170000  1.0
  S2-  S1  1  0.63375000  0.00365000  0.83170000  1.0
  S2-  S1  1  0.63375000  0.50365000  0.83170000  1.0
  S2-  S1  1  0.13375000  0.24635000  0.83170000  1.0
  S2-  S1  1  0.13375000  0.74635000  0.83170000  1.0
  S2-  S1  1  0.63375000  0.24635000  0.83170000  1.0
  S2-  S1  1  0.63375000  0.74635000  0.83170000  1.0
  S2-  S1  1  0.38375000  0.25365000  0.66830000  1.0
  S2-  S1  1  0.38375000  0.75365000  0.66830000  1.0
  S2-  S1  1  0.88375000  0.25365000  0.66830000  1.0
  S2-  S1  1  0.88375000  0.75365000  0.66830000  1.0
  S2-  S1  1  0.11625000  0.00365000  0.33170000  1.0
  S2-  S1  1  0.11625000  0.50365000  0.33170000  1.0
  S2-  S1  1  0.61625000  0.00365000  0.33170000  1.0
  S2-  S1  1  0.61625000  0.50365000  0.33170000  1.0
  S2-  S1  1  0.36625000  0.25365000  0.16830000  1.0
  S2-  S1  1  0.36625000  0.75365000  0.16830000  1.0
  S2-  S1  1  0.86625000  0.25365000  0.16830000  1.0
  S2-  S1  1  0.86625000  0.75365000  0.16830000  1.0
  S2-  S1  1  0.36625000  0.49635000  0.16830000  1.0
  S2-  S1  1  0.36625000  0.99635000  0.16830000  1.0
  S2-  S1  1  0.86625000  0.49635000  0.16830000  1.0
  S2-  S1  1  0.86625000  0.99635000  0.16830000  1.0
  S2-  S2  1  0.38470000  0.12500000  0.90680000  1.0
  S2-  S2  1  0.38470000  0.62500000  0.90680000  1.0
  S2-  S2  1  0.88470000  0.12500000  0.90680000  1.0
  S2-  S2  1  0.88470000  0.62500000  0.90680000  1.0
  S2-  S2  1  0.11530000  0.37500000  0.09320000  1.0
  S2-  S2  1  0.11530000  0.87500000  0.09320000  1.0
  S2-  S2  1  0.61530000  0.37500000  0.09320000  1.0
  S2-  S2  1  0.61530000  0.87500000  0.09320000  1.0
  S2-  S2  1  0.13470000  0.37500000  0.59320000  1.0
  S2-  S2  1  0.13470000  0.87500000  0.59320000  1.0
  S2-  S2  1  0.63470000  0.37500000  0.59320000  1.0
  S2-  S2  1  0.63470000  0.87500000  0.59320000  1.0
  S2-  S2  1  0.36530000  0.12500000  0.40680000  1.0
  S2-  S2  1  0.36530000  0.62500000  0.40680000  1.0
  S2-  S2  1  0.86530000  0.12500000  0.40680000  1.0
  S2-  S2  1  0.86530000  0.62500000  0.40680000  1.0
  S2-  S3  1  0.36950000  0.37500000  0.92550000  1.0
  S2-  S3  1  0.36950000  0.87500000  0.92550000  1.0
  S2-  S3  1  0.86950000  0.37500000  0.92550000  1.0
  S2-  S3  1  0.86950000  0.87500000  0.92550000  1.0
  S2-  S3  1  0.13050000  0.12500000  0.07450000  1.0
  S2-  S3  1  0.13050000  0.62500000  0.07450000  1.0
  S2-  S3  1  0.63050000  0.12500000  0.07450000  1.0
  S2-  S3  1  0.63050000  0.62500000  0.07450000  1.0
  S2-  S3  1  0.11950000  0.12500000  0.57450000  1.0
  S2-  S3  1  0.11950000  0.62500000  0.57450000  1.0
  S2-  S3  1  0.61950000  0.12500000  0.57450000  1.0
  S2-  S3  1  0.61950000  0.62500000  0.57450000  1.0
  S2-  S3  1  0.38050000  0.37500000  0.42550000  1.0
  S2-  S3  1  0.38050000  0.87500000  0.42550000  1.0
  S2-  S3  1  0.88050000  0.37500000  0.42550000  1.0
  S2-  S3  1  0.88050000  0.87500000  0.42550000  1.0
