# generated using pymatgen
data_Li5NCl2
_symmetry_space_group_name_H-M   'P 1'
_cell_length_a   11.48907098
_cell_length_b   22.97814195
_cell_length_c   11.48907098
_cell_angle_alpha   60.00000000
_cell_angle_beta   60.00000000
_cell_angle_gamma   60.00000000
_symmetry_Int_Tables_number   1
_chemical_formula_structural   Li5NCl2
_chemical_formula_sum   'Li90 N18 Cl36'
_cell_volume   2144.71572116
_cell_formula_units_Z   18
loop_
 _symmetry_equiv_pos_site_id
 _symmetry_equiv_pos_as_xyz
  1  'x, y, z'
loop_
 _atom_type_symbol
 _atom_type_oxidation_number
  Li+  1.0
  N3-  -3.0
  Cl-  -1.0
loop_
 _atom_site_type_symbol
 _atom_site_label
 _atom_site_symmetry_multiplicity
 _atom_site_fract_x
 _atom_site_fract_y
 _atom_site_fract_z
 _atom_site_occupancy
  Li+  Li0  1  0.04333333  0.21500000  0.76333333  1.0
  Li+  Li0  1  0.04333333  0.54833333  0.76333333  1.0
  Li+  Li0  1  0.04333333  0.88166667  0.76333333  1.0
  Li+  Li1  1  0.09666667  0.02166667  0.43000000  1.0
  Li+  Li1  1  0.09666667  0.35500000  0.43000000  1.0
  Li+  Li1  1  0.09666667  0.68833333  0.43000000  1.0
  Li+  Li2  1  0.43000000  0.18833333  0.09666667  1.0
  Li+  Li2  1  0.43000000  0.52166667  0.09666667  1.0
  Li+  Li2  1  0.43000000  0.85500000  0.09666667  1.0
  Li+  Li3  1  0.43000000  0.18833333  0.76333333  1.0
  Li+  Li3  1  0.43000000  0.52166667  0.76333333  1.0
  Li+  Li3  1  0.43000000  0.85500000  0.76333333  1.0
  Li+  Li4  1  0.23666667  0.31166667  0.90333333  1.0
  Li+  Li4  1  0.23666667  0.64500000  0.90333333  1.0
  Li+  Li4  1  0.23666667  0.97833333  0.90333333  1.0
  Li+  Li5  1  0.23666667  0.28500000  0.90333333  1.0
  Li+  Li5  1  0.23666667  0.61833333  0.90333333  1.0
  Li+  Li5  1  0.23666667  0.95166667  0.90333333  1.0
  Li+  Li6  1  0.57000000  0.11833333  0.57000000  1.0
  Li+  Li6  1  0.57000000  0.45166667  0.57000000  1.0
  Li+  Li6  1  0.57000000  0.78500000  0.57000000  1.0
  Li+  Li7  1  0.69500000  0.18083333  0.13833333  1.0
  Li+  Li7  1  0.69500000  0.51416667  0.13833333  1.0
  Li+  Li7  1  0.69500000  0.84750000  0.13833333  1.0
  Li+  Li8  1  0.86166667  0.15250000  0.97166667  1.0
  Li+  Li8  1  0.86166667  0.48583333  0.97166667  1.0
  Li+  Li8  1  0.86166667  0.81916667  0.97166667  1.0
  Li+  Li9  1  0.86166667  0.31916667  0.97166667  1.0
  Li+  Li9  1  0.86166667  0.65250000  0.97166667  1.0
  Li+  Li9  1  0.86166667  0.98583333  0.97166667  1.0
  Li+  Li10  1  0.19500000  0.15250000  0.19500000  1.0
  Li+  Li10  1  0.19500000  0.48583333  0.19500000  1.0
  Li+  Li10  1  0.19500000  0.81916667  0.19500000  1.0
  Li+  Li11  1  0.19500000  0.15250000  0.86166667  1.0
  Li+  Li11  1  0.19500000  0.48583333  0.86166667  1.0
  Li+  Li11  1  0.19500000  0.81916667  0.86166667  1.0
  Li+  Li12  1  0.86166667  0.15250000  0.86166667  1.0
  Li+  Li12  1  0.86166667  0.48583333  0.86166667  1.0
  Li+  Li12  1  0.86166667  0.81916667  0.86166667  1.0
  Li+  Li13  1  0.86166667  0.31916667  0.52833333  1.0
  Li+  Li13  1  0.86166667  0.65250000  0.52833333  1.0
  Li+  Li13  1  0.86166667  0.98583333  0.52833333  1.0
  Li+  Li14  1  0.63833333  0.09750000  0.30500000  1.0
  Li+  Li14  1  0.63833333  0.43083333  0.30500000  1.0
  Li+  Li14  1  0.63833333  0.76416667  0.30500000  1.0
  Li+  Li15  1  0.97166667  0.09750000  0.30500000  1.0
  Li+  Li15  1  0.97166667  0.43083333  0.30500000  1.0
  Li+  Li15  1  0.97166667  0.76416667  0.30500000  1.0
  Li+  Li16  1  0.45666667  0.03500000  0.73666667  1.0
  Li+  Li16  1  0.45666667  0.36833333  0.73666667  1.0
  Li+  Li16  1  0.45666667  0.70166667  0.73666667  1.0
  Li+  Li17  1  0.79000000  0.03500000  0.07000000  1.0
  Li+  Li17  1  0.79000000  0.36833333  0.07000000  1.0
  Li+  Li17  1  0.79000000  0.70166667  0.07000000  1.0
  Li+  Li18  1  0.79000000  0.03500000  0.40333333  1.0
  Li+  Li18  1  0.79000000  0.36833333  0.40333333  1.0
  Li+  Li18  1  0.79000000  0.70166667  0.40333333  1.0
  Li+  Li19  1  0.79000000  0.20166667  0.07000000  1.0
  Li+  Li19  1  0.79000000  0.53500000  0.07000000  1.0
  Li+  Li19  1  0.79000000  0.86833333  0.07000000  1.0
  Li+  Li20  1  0.73666667  0.03500000  0.45666667  1.0
  Li+  Li20  1  0.73666667  0.36833333  0.45666667  1.0
  Li+  Li20  1  0.73666667  0.70166667  0.45666667  1.0
  Li+  Li21  1  0.73666667  0.20166667  0.45666667  1.0
  Li+  Li21  1  0.73666667  0.53500000  0.45666667  1.0
  Li+  Li21  1  0.73666667  0.86833333  0.45666667  1.0
  Li+  Li22  1  0.07000000  0.03500000  0.07000000  1.0
  Li+  Li22  1  0.07000000  0.36833333  0.07000000  1.0
  Li+  Li22  1  0.07000000  0.70166667  0.07000000  1.0
  Li+  Li23  1  0.40333333  0.03500000  0.40333333  1.0
  Li+  Li23  1  0.40333333  0.36833333  0.40333333  1.0
  Li+  Li23  1  0.40333333  0.70166667  0.40333333  1.0
  Li+  Li24  1  0.21000000  0.29833333  0.26333333  1.0
  Li+  Li24  1  0.21000000  0.63166667  0.26333333  1.0
  Li+  Li24  1  0.21000000  0.96500000  0.26333333  1.0
  Li+  Li25  1  0.54333333  0.13166667  0.93000000  1.0
  Li+  Li25  1  0.54333333  0.46500000  0.93000000  1.0
  Li+  Li25  1  0.54333333  0.79833333  0.93000000  1.0
  Li+  Li26  1  0.26333333  0.10500000  0.93000000  1.0
  Li+  Li26  1  0.26333333  0.43833333  0.93000000  1.0
  Li+  Li26  1  0.26333333  0.77166667  0.93000000  1.0
  Li+  Li27  1  0.93000000  0.10500000  0.93000000  1.0
  Li+  Li27  1  0.93000000  0.43833333  0.93000000  1.0
  Li+  Li27  1  0.93000000  0.77166667  0.93000000  1.0
  Li+  Li28  1  0.59666667  0.29833333  0.87666667  1.0
  Li+  Li28  1  0.59666667  0.63166667  0.87666667  1.0
  Li+  Li28  1  0.59666667  0.96500000  0.87666667  1.0
  Li+  Li29  1  0.59666667  0.29833333  0.59666667  1.0
  Li+  Li29  1  0.59666667  0.63166667  0.59666667  1.0
  Li+  Li29  1  0.59666667  0.96500000  0.59666667  1.0
  N3-  N30  1  0.00000000  0.00000000  0.00000000  1.0
  N3-  N30  1  0.00000000  0.33333333  0.00000000  1.0
  N3-  N30  1  0.00000000  0.66666667  0.00000000  1.0
  N3-  N31  1  0.00000000  0.16666667  0.00000000  1.0
  N3-  N31  1  0.00000000  0.50000000  0.00000000  1.0
  N3-  N31  1  0.00000000  0.83333333  0.00000000  1.0
  N3-  N32  1  0.33333333  0.00000000  0.33333333  1.0
  N3-  N32  1  0.33333333  0.33333333  0.33333333  1.0
  N3-  N32  1  0.33333333  0.66666667  0.33333333  1.0
  N3-  N33  1  0.66666667  0.00000000  0.33333333  1.0
  N3-  N33  1  0.66666667  0.33333333  0.33333333  1.0
  N3-  N33  1  0.66666667  0.66666667  0.33333333  1.0
  N3-  N34  1  0.66666667  0.16666667  0.00000000  1.0
  N3-  N34  1  0.66666667  0.50000000  1.00000000  1.0
  N3-  N34  1  0.66666667  0.83333333  0.00000000  1.0
  N3-  N35  1  0.66666667  0.16666667  0.33333333  1.0
  N3-  N35  1  0.66666667  0.50000000  0.33333333  1.0
  N3-  N35  1  0.66666667  0.83333333  0.33333333  1.0
  Cl-  Cl36  1  0.00000000  0.00000000  0.33333333  1.0
  Cl-  Cl36  1  0.00000000  0.33333333  0.33333333  1.0
  Cl-  Cl36  1  0.00000000  0.66666667  0.33333333  1.0
  Cl-  Cl37  1  0.00000000  0.00000000  0.66666667  1.0
  Cl-  Cl37  1  0.00000000  0.33333333  0.66666667  1.0
  Cl-  Cl37  1  0.00000000  0.66666667  0.66666667  1.0
  Cl-  Cl38  1  0.00000000  0.16666667  0.33333333  1.0
  Cl-  Cl38  1  0.00000000  0.50000000  0.33333333  1.0
  Cl-  Cl38  1  0.00000000  0.83333333  0.33333333  1.0
  Cl-  Cl39  1  0.00000000  0.16666667  0.66666667  1.0
  Cl-  Cl39  1  0.00000000  0.50000000  0.66666667  1.0
  Cl-  Cl39  1  0.00000000  0.83333333  0.66666667  1.0
  Cl-  Cl40  1  0.33333333  0.00000000  0.00000000  1.0
  Cl-  Cl40  1  0.33333333  0.33333333  0.00000000  1.0
  Cl-  Cl40  1  0.33333333  0.66666667  0.00000000  1.0
  Cl-  Cl41  1  0.33333333  0.00000000  0.66666667  1.0
  Cl-  Cl41  1  0.33333333  0.33333333  0.66666667  1.0
  Cl-  Cl41  1  0.33333333  0.66666667  0.66666667  1.0
  Cl-  Cl42  1  0.33333333  0.16666667  0.00000000  1.0
  Cl-  Cl42  1  0.33333333  0.50000000  0.00000000  1.0
  Cl-  Cl42  1  0.33333333  0.83333333  0.00000000  1.0
  Cl-  Cl43  1  0.33333333  0.16666667  0.33333333  1.0
  Cl-  Cl43  1  0.33333333  0.50000000  0.33333333  1.0
  Cl-  Cl43  1  0.33333333  0.83333333  0.33333333  1.0
  Cl-  Cl44  1  0.33333333  0.16666667  0.66666667  1.0
  Cl-  Cl44  1  0.33333333  0.50000000  0.66666667  1.0
  Cl-  Cl44  1  0.33333333  0.83333333  0.66666667  1.0
  Cl-  Cl45  1  0.66666667  0.00000000  0.00000000  1.0
  Cl-  Cl45  1  0.66666667  0.33333333  0.00000000  1.0
  Cl-  Cl45  1  0.66666667  0.66666667  1.00000000  1.0
  Cl-  Cl46  1  0.66666667  0.00000000  0.66666667  1.0
  Cl-  Cl46  1  0.66666667  0.33333333  0.66666667  1.0
  Cl-  Cl46  1  0.66666667  0.66666667  0.66666667  1.0
  Cl-  Cl47  1  0.66666667  0.16666667  0.66666667  1.0
  Cl-  Cl47  1  0.66666667  0.50000000  0.66666667  1.0
  Cl-  Cl47  1  0.66666667  0.83333333  0.66666667  1.0
