# generated using pymatgen
data_Li23P4S19Cl5
_symmetry_space_group_name_H-M   'P 1'
_cell_length_a   29.52540000
_cell_length_b   9.84180000
_cell_length_c   9.84180000
_cell_angle_alpha   90.00000000
_cell_angle_beta   90.00000000
_cell_angle_gamma   90.00000000
_symmetry_Int_Tables_number   1
_chemical_formula_structural   Li23P4S19Cl5
_chemical_formula_sum   'Li69 P12 S57 Cl15'
_cell_volume   2859.86057367
_cell_formula_units_Z   3
loop_
 _symmetry_equiv_pos_site_id
 _symmetry_equiv_pos_as_xyz
  1  'x, y, z'
loop_
 _atom_type_symbol
 _atom_type_oxidation_number
  Li+  1.0
  P5+  5.0
  S2-  -2.0
  Cl-  -1.0
loop_
 _atom_site_type_symbol
 _atom_site_label
 _atom_site_symmetry_multiplicity
 _atom_site_fract_x
 _atom_site_fract_y
 _atom_site_fract_z
 _atom_site_occupancy
  Li+  Li0  1  0.32377029  0.32143490  0.06819121  1.0
  Li+  Li1  1  0.65803333  0.32200000  0.07190000  1.0
  Li+  Li2  1  0.99136667  0.32200000  0.07190000  1.0
  Li+  Li3  1  0.22600000  0.02590000  0.07190000  1.0
  Li+  Li4  1  0.55933333  0.02590000  0.07190000  1.0
  Li+  Li5  1  0.89266667  0.02590000  0.07190000  1.0
  Li+  Li6  1  0.00863333  0.32200000  0.42810000  1.0
  Li+  Li7  1  0.34196667  0.32200000  0.42810000  1.0
  Li+  Li8  1  0.67530000  0.32200000  0.42810000  1.0
  Li+  Li9  1  0.10730000  0.97410000  0.07200000  1.0
  Li+  Li10  1  0.43793153  0.97324533  0.07066543  1.0
  Li+  Li11  1  0.77396667  0.97410000  0.07200000  1.0
  Li+  Li12  1  0.05933333  0.67810000  0.22410000  1.0
  Li+  Li13  1  0.39266667  0.67810000  0.22410000  1.0
  Li+  Li14  1  0.72600000  0.67810000  0.22410000  1.0
  Li+  Li15  1  0.05933333  0.97410000  0.92810000  1.0
  Li+  Li16  1  0.39266667  0.97410000  0.92810000  1.0
  Li+  Li17  1  0.72600000  0.97410000  0.92810000  1.0
  Li+  Li18  1  0.17530000  0.32190000  0.92800000  1.0
  Li+  Li19  1  0.51018361  0.31859602  0.93374411  1.0
  Li+  Li20  1  0.84196667  0.32190000  0.92800000  1.0
  Li+  Li21  1  0.17530000  0.67810000  0.57200000  1.0
  Li+  Li22  1  0.50863333  0.67810000  0.57200000  1.0
  Li+  Li23  1  0.84196667  0.67810000  0.57200000  1.0
  Li+  Li24  1  0.27396667  0.97410000  0.57200000  1.0
  Li+  Li25  1  0.60730000  0.97410000  0.57200000  1.0
  Li+  Li26  1  0.94063333  0.97410000  0.57200000  1.0
  Li+  Li27  1  0.05942678  0.47135511  0.43018729  1.0
  Li+  Li28  1  0.39173456  0.47165756  0.42682060  1.0
  Li+  Li29  1  0.72603333  0.47410000  0.42800000  1.0
  Li+  Li30  1  0.05936667  0.17800000  0.72410000  1.0
  Li+  Li31  1  0.39270000  0.17800000  0.72410000  1.0
  Li+  Li32  1  0.72309107  0.17741744  0.72326252  1.0
  Li+  Li33  1  0.15593630  0.17791370  0.42737039  1.0
  Li+  Li34  1  0.49136667  0.17800000  0.42810000  1.0
  Li+  Li35  1  0.82470000  0.17800000  0.42810000  1.0
  Li+  Li36  1  0.27681584  0.47482333  0.07675541  1.0
  Li+  Li37  1  0.60733333  0.47410000  0.07190000  1.0
  Li+  Li38  1  0.94066667  0.47410000  0.07190000  1.0
  Li+  Li39  1  0.27400000  0.52590000  0.42810000  1.0
  Li+  Li40  1  0.60733333  0.52590000  0.42810000  1.0
  Li+  Li41  1  0.94066667  0.52590000  0.42810000  1.0
  Li+  Li42  1  0.17530000  0.82190000  0.42800000  1.0
  Li+  Li43  1  0.50863333  0.82190000  0.42800000  1.0
  Li+  Li44  1  0.84196667  0.82190000  0.42800000  1.0
  Li+  Li45  1  0.05936667  0.82200000  0.77590000  1.0
  Li+  Li46  1  0.39270000  0.82200000  0.77590000  1.0
  Li+  Li47  1  0.72603333  0.82200000  0.77590000  1.0
  Li+  Li48  1  0.32470000  0.82200000  0.57190000  1.0
  Li+  Li49  1  0.65803333  0.82200000  0.57190000  1.0
  Li+  Li50  1  0.99136667  0.82200000  0.57190000  1.0
  Li+  Li51  1  0.32470000  0.17810000  0.92800000  1.0
  Li+  Li52  1  0.65737930  0.18053121  0.92503171  1.0
  Li+  Li53  1  0.99008328  0.17602745  0.92921212  1.0
  Li+  Li54  1  0.10733333  0.17810000  0.27590000  1.0
  Li+  Li55  1  0.44006179  0.18226370  0.27627281  1.0
  Li+  Li56  1  0.77665898  0.17660317  0.27241248  1.0
  Li+  Li57  1  0.00863333  0.82190000  0.92800000  1.0
  Li+  Li58  1  0.34196667  0.82190000  0.92800000  1.0
  Li+  Li59  1  0.67534826  0.81773383  0.93254802  1.0
  Li+  Li60  1  0.08680636  0.45177702  0.70086781  1.0
  Li+  Li61  1  0.41966667  0.45200000  0.70200000  1.0
  Li+  Li62  1  0.75300000  0.45200000  0.70200000  1.0
  Li+  Li63  1  0.18266667  0.25900000  0.79800000  1.0
  Li+  Li64  1  0.51600000  0.25900000  0.79800000  1.0
  Li+  Li65  1  0.84933333  0.25900000  0.79800000  1.0
  Li+  Li66  1  0.25300000  0.04800000  0.79800000  1.0
  Li+  Li67  1  0.58633333  0.04800000  0.79800000  1.0
  Li+  Li68  1  0.91894225  0.04957370  0.79324946  1.0
  P5+  P69  1  0.00000000  0.50000000  0.75000000  1.0
  P5+  P70  1  0.33333333  0.50000000  0.75000000  1.0
  P5+  P71  1  0.66666667  0.50000000  0.75000000  1.0
  P5+  P72  1  0.00000000  0.00000000  0.25000000  1.0
  P5+  P73  1  0.33595881  0.99620764  0.24919555  1.0
  P5+  P74  1  0.66666667  0.00000000  0.25000000  1.0
  P5+  P75  1  0.16666667  0.00000000  0.75000000  1.0
  P5+  P76  1  0.50291153  0.99900423  0.75036073  1.0
  P5+  P77  1  0.83333333  0.00000000  0.75000000  1.0
  P5+  P78  1  0.16666667  0.50000000  0.25000000  1.0
  P5+  P79  1  0.50000000  0.50000000  0.25000000  1.0
  P5+  P80  1  0.83333333  0.50000000  0.25000000  1.0
  S2-  S81  1  0.04070788  0.37542649  0.87071852  1.0
  S2-  S82  1  0.37396667  0.37810000  0.87190000  1.0
  S2-  S83  1  0.70730000  0.37810000  0.87190000  1.0
  S2-  S84  1  0.29270000  0.12190000  0.37190000  1.0
  S2-  S85  1  0.62603333  0.12190000  0.37190000  1.0
  S2-  S86  1  0.95936667  0.12190000  0.37190000  1.0
  S2-  S87  1  0.29451668  0.87991859  0.12813073  1.0
  S2-  S88  1  0.62962081  0.88007962  0.12729742  1.0
  S2-  S89  1  0.95936667  0.87810000  0.12810000  1.0
  S2-  S90  1  0.28860108  0.62047972  0.87027270  1.0
  S2-  S91  1  0.62603333  0.62190000  0.87190000  1.0
  S2-  S92  1  0.95936667  0.62190000  0.87190000  1.0
  S2-  S93  1  0.04063333  0.87810000  0.37190000  1.0
  S2-  S94  1  0.37227081  0.87548031  0.36956430  1.0
  S2-  S95  1  0.70784168  0.87878958  0.37311779  1.0
  S2-  S96  1  0.04063333  0.12190000  0.12810000  1.0
  S2-  S97  1  0.37396667  0.12190000  0.12810000  1.0
  S2-  S98  1  0.70799472  0.12240254  0.13018911  1.0
  S2-  S99  1  0.04063333  0.62190000  0.62810000  1.0
  S2-  S100  1  0.37396667  0.62190000  0.62810000  1.0
  S2-  S101  1  0.70730000  0.62190000  0.62810000  1.0
  S2-  S102  1  0.12616732  0.11662018  0.86862448  1.0
  S2-  S103  1  0.45839222  0.12126028  0.87118099  1.0
  S2-  S104  1  0.79270000  0.12190000  0.87190000  1.0
  S2-  S105  1  0.12603333  0.87810000  0.62810000  1.0
  S2-  S106  1  0.45936667  0.87810000  0.62810000  1.0
  S2-  S107  1  0.79270000  0.87810000  0.62810000  1.0
  S2-  S108  1  0.20369946  0.88504037  0.87095722  1.0
  S2-  S109  1  0.54063333  0.87810000  0.87190000  1.0
  S2-  S110  1  0.87396667  0.87810000  0.87190000  1.0
  S2-  S111  1  0.21250427  0.12188981  0.63059678  1.0
  S2-  S112  1  0.54063333  0.12190000  0.62810000  1.0
  S2-  S113  1  0.87396667  0.12190000  0.62810000  1.0
  S2-  S114  1  0.29156615  0.38003098  0.62509501  1.0
  S2-  S115  1  0.62603333  0.37810000  0.62810000  1.0
  S2-  S116  1  0.95936667  0.37810000  0.62810000  1.0
  S2-  S117  1  0.20730000  0.37810000  0.37190000  1.0
  S2-  S118  1  0.53406514  0.37807436  0.37460763  1.0
  S2-  S119  1  0.87467970  0.38284503  0.36763632  1.0
  S2-  S120  1  0.12603333  0.62190000  0.37190000  1.0
  S2-  S121  1  0.45844185  0.62042168  0.37043178  1.0
  S2-  S122  1  0.79270000  0.62190000  0.37190000  1.0
  S2-  S123  1  0.20730000  0.62190000  0.12810000  1.0
  S2-  S124  1  0.54063333  0.62190000  0.12810000  1.0
  S2-  S125  1  0.87396667  0.62190000  0.12810000  1.0
  S2-  S126  1  0.12788593  0.37607151  0.12604156  1.0
  S2-  S127  1  0.45936667  0.37810000  0.12810000  1.0
  S2-  S128  1  0.79354347  0.37933901  0.12487429  1.0
  S2-  S129  1  0.16666667  0.00000000  0.25000000  1.0
  S2-  S130  1  0.50000000  0.00000000  0.25000000  1.0
  S2-  S131  1  0.83333333  0.00000000  0.25000000  1.0
  S2-  S132  1  0.00000000  0.50000000  0.25000000  1.0
  S2-  S133  1  0.33333333  0.50000000  0.25000000  1.0
  S2-  S134  1  0.66666667  0.50000000  0.25000000  1.0
  S2-  S135  1  0.24863874  0.25106276  0.00297764  1.0
  S2-  S136  1  0.58333333  0.25000000  0.00000000  1.0
  S2-  S137  1  0.91666667  0.25000000  0.00000000  1.0
  Cl-  Cl138  1  0.00000000  0.00000000  0.75000000  1.0
  Cl-  Cl139  1  0.33333333  0.00000000  0.75000000  1.0
  Cl-  Cl140  1  0.66666667  0.00000000  0.75000000  1.0
  Cl-  Cl141  1  0.16666667  0.50000000  0.75000000  1.0
  Cl-  Cl142  1  0.50000000  0.50000000  0.75000000  1.0
  Cl-  Cl143  1  0.83876340  0.49868525  0.74648970  1.0
  Cl-  Cl144  1  0.08459446  0.25095993  0.49794688  1.0
  Cl-  Cl145  1  0.41666667  0.25000000  0.50000000  1.0
  Cl-  Cl146  1  0.74952425  0.24634259  0.49798102  1.0
  Cl-  Cl147  1  0.25000000  0.75000000  0.50000000  1.0
  Cl-  Cl148  1  0.58333333  0.75000000  0.50000000  1.0
  Cl-  Cl149  1  0.91666667  0.75000000  0.50000000  1.0
  Cl-  Cl150  1  0.08333333  0.75000000  0.00000000  1.0
  Cl-  Cl151  1  0.41666667  0.75000000  0.00000000  1.0
  Cl-  Cl152  1  0.75000000  0.75000000  0.00000000  1.0
