# generated using pymatgen
data_Li23P4S19Cl5
_symmetry_space_group_name_H-M   'P 1'
_cell_length_a   9.76126801
_cell_length_b   29.28380402
_cell_length_c   9.76126801
_cell_angle_alpha   90.00000000
_cell_angle_beta   90.00000000
_cell_angle_gamma   90.00000000
_symmetry_Int_Tables_number   1
_chemical_formula_structural   Li23P4S19Cl5
_chemical_formula_sum   'Li69 P12 S57 Cl15'
_cell_volume   2790.22975659
_cell_formula_units_Z   3
loop_
 _symmetry_equiv_pos_site_id
 _symmetry_equiv_pos_as_xyz
  1  'x, y, z'
loop_
 _atom_type_symbol
 _atom_type_oxidation_number
  Li+  1.0
  P5+  5.0
  S2-  -2.0
  Cl-  -1.0
loop_
 _atom_site_type_symbol
 _atom_site_label
 _atom_site_symmetry_multiplicity
 _atom_site_fract_x
 _atom_site_fract_y
 _atom_site_fract_z
 _atom_site_occupancy
  Li+  Li0  1  0.32190000  0.34196667  0.67800000  1.0
  Li+  Li1  1  0.32190000  0.00863333  0.67800000  1.0
  Li+  Li2  1  0.32190000  0.67530000  0.67800000  1.0
  Li+  Li3  1  0.32190000  0.44066667  0.97410000  1.0
  Li+  Li4  1  0.32190000  0.10733333  0.97410000  1.0
  Li+  Li5  1  0.32190000  0.77400000  0.97410000  1.0
  Li+  Li6  1  0.67810000  0.65803333  0.67800000  1.0
  Li+  Li7  1  0.67810000  0.32470000  0.67800000  1.0
  Li+  Li8  1  0.67810000  0.99136667  0.67800000  1.0
  Li+  Li9  1  0.32200000  0.55936667  0.02590000  1.0
  Li+  Li10  1  0.32200000  0.22603333  0.02590000  1.0
  Li+  Li11  1  0.32200000  0.89270000  0.02590000  1.0
  Li+  Li12  1  0.47410000  0.60733333  0.32190000  1.0
  Li+  Li13  1  0.47410000  0.27400000  0.32190000  1.0
  Li+  Li14  1  0.47410000  0.94066667  0.32190000  1.0
  Li+  Li15  1  0.17810000  0.60733333  0.02590000  1.0
  Li+  Li16  1  0.17810000  0.27400000  0.02590000  1.0
  Li+  Li17  1  0.17810000  0.94066667  0.02590000  1.0
  Li+  Li18  1  0.17800000  0.49136667  0.67810000  1.0
  Li+  Li19  1  0.17800000  0.15803333  0.67810000  1.0
  Li+  Li20  1  0.17800000  0.82470000  0.67810000  1.0
  Li+  Li21  1  0.82200000  0.49136667  0.32190000  1.0
  Li+  Li22  1  0.82200000  0.15803333  0.32190000  1.0
  Li+  Li23  1  0.82200000  0.82470000  0.32190000  1.0
  Li+  Li24  1  0.82200000  0.39270000  0.02590000  1.0
  Li+  Li25  1  0.82200000  0.05936667  0.02590000  1.0
  Li+  Li26  1  0.82200000  0.72603333  0.02590000  1.0
  Li+  Li27  1  0.67800000  0.60730000  0.52590000  1.0
  Li+  Li28  1  0.67800000  0.27396667  0.52590000  1.0
  Li+  Li29  1  0.67800000  0.94063333  0.52590000  1.0
  Li+  Li30  1  0.97410000  0.60730000  0.82200000  1.0
  Li+  Li31  1  0.97410000  0.27396667  0.82200000  1.0
  Li+  Li32  1  0.97410000  0.94063333  0.82200000  1.0
  Li+  Li33  1  0.67810000  0.50863333  0.82200000  1.0
  Li+  Li34  1  0.67810000  0.17530000  0.82200000  1.0
  Li+  Li35  1  0.67810000  0.84196667  0.82200000  1.0
  Li+  Li36  1  0.32190000  0.39266667  0.52590000  1.0
  Li+  Li37  1  0.32190000  0.05933333  0.52590000  1.0
  Li+  Li38  1  0.32190000  0.72600000  0.52590000  1.0
  Li+  Li39  1  0.67810000  0.39266667  0.47410000  1.0
  Li+  Li40  1  0.67810000  0.05933333  0.47410000  1.0
  Li+  Li41  1  0.67810000  0.72600000  0.47410000  1.0
  Li+  Li42  1  0.67800000  0.49136667  0.17810000  1.0
  Li+  Li43  1  0.67800000  0.15803333  0.17810000  1.0
  Li+  Li44  1  0.67800000  0.82470000  0.17810000  1.0
  Li+  Li45  1  0.02590000  0.60730000  0.17800000  1.0
  Li+  Li46  1  0.02590000  0.27396667  0.17800000  1.0
  Li+  Li47  1  0.02590000  0.94063333  0.17800000  1.0
  Li+  Li48  1  0.82190000  0.34196667  0.17800000  1.0
  Li+  Li49  1  0.82190000  0.00863333  0.17800000  1.0
  Li+  Li50  1  0.82190000  0.67530000  0.17800000  1.0
  Li+  Li51  1  0.17800000  0.34196667  0.82190000  1.0
  Li+  Li52  1  0.17800000  0.00863333  0.82190000  1.0
  Li+  Li53  1  0.17800000  0.67530000  0.82190000  1.0
  Li+  Li54  1  0.52590000  0.55933333  0.82190000  1.0
  Li+  Li55  1  0.52590000  0.22600000  0.82190000  1.0
  Li+  Li56  1  0.52590000  0.89266667  0.82190000  1.0
  Li+  Li57  1  0.17800000  0.65803333  0.17810000  1.0
  Li+  Li58  1  0.17800000  0.32470000  0.17810000  1.0
  Li+  Li59  1  0.17800000  0.99136667  0.17810000  1.0
  Li+  Li60  1  0.95200000  0.58033333  0.54800000  1.0
  Li+  Li61  1  0.95200000  0.24700000  0.54800000  1.0
  Li+  Li62  1  0.95200000  0.91366667  0.54800000  1.0
  Li+  Li63  1  0.04800000  0.48400000  0.74100000  1.0
  Li+  Li64  1  0.04800000  0.15066667  0.74100000  1.0
  Li+  Li65  1  0.04800000  0.81733333  0.74100000  1.0
  Li+  Li66  1  0.04800000  0.41366667  0.95200000  1.0
  Li+  Li67  1  0.04800000  0.08033333  0.95200000  1.0
  Li+  Li68  1  0.04800000  0.74700000  0.95200000  1.0
  P5+  P69  1  0.00000000  0.66666667  0.50000000  1.0
  P5+  P70  1  0.00000000  0.33333333  0.50000000  1.0
  P5+  P71  1  0.00000000  0.00000000  0.50000000  1.0
  P5+  P72  1  0.50000000  0.66666667  0.00000000  1.0
  P5+  P73  1  0.50000000  0.33333333  0.00000000  1.0
  P5+  P74  1  0.50000000  0.00000000  0.00000000  1.0
  P5+  P75  1  0.00000000  0.50000000  0.00000000  1.0
  P5+  P76  1  0.00000000  0.16666667  0.00000000  1.0
  P5+  P77  1  0.00000000  0.83333333  0.00000000  1.0
  P5+  P78  1  0.50000000  0.50000000  0.50000000  1.0
  P5+  P79  1  0.50000000  0.16666667  0.50000000  1.0
  P5+  P80  1  0.50000000  0.83333333  0.50000000  1.0
  S2-  S81  1  0.12190000  0.62603333  0.62190000  1.0
  S2-  S82  1  0.12190000  0.29270000  0.62190000  1.0
  S2-  S83  1  0.12190000  0.95936667  0.62190000  1.0
  S2-  S84  1  0.62190000  0.37396667  0.87810000  1.0
  S2-  S85  1  0.62190000  0.04063333  0.87810000  1.0
  S2-  S86  1  0.62190000  0.70730000  0.87810000  1.0
  S2-  S87  1  0.37810000  0.37396667  0.12190000  1.0
  S2-  S88  1  0.37810000  0.04063333  0.12190000  1.0
  S2-  S89  1  0.37810000  0.70730000  0.12190000  1.0
  S2-  S90  1  0.12190000  0.37396667  0.37810000  1.0
  S2-  S91  1  0.12190000  0.04063333  0.37810000  1.0
  S2-  S92  1  0.12190000  0.70730000  0.37810000  1.0
  S2-  S93  1  0.62190000  0.62603333  0.12190000  1.0
  S2-  S94  1  0.62190000  0.29270000  0.12190000  1.0
  S2-  S95  1  0.62190000  0.95936667  0.12190000  1.0
  S2-  S96  1  0.37810000  0.62603333  0.87810000  1.0
  S2-  S97  1  0.37810000  0.29270000  0.87810000  1.0
  S2-  S98  1  0.37810000  0.95936667  0.87810000  1.0
  S2-  S99  1  0.87810000  0.62603333  0.37810000  1.0
  S2-  S100  1  0.87810000  0.29270000  0.37810000  1.0
  S2-  S101  1  0.87810000  0.95936667  0.37810000  1.0
  S2-  S102  1  0.12190000  0.54063333  0.87810000  1.0
  S2-  S103  1  0.12190000  0.20730000  0.87810000  1.0
  S2-  S104  1  0.12190000  0.87396667  0.87810000  1.0
  S2-  S105  1  0.87810000  0.54063333  0.12190000  1.0
  S2-  S106  1  0.87810000  0.20730000  0.12190000  1.0
  S2-  S107  1  0.87810000  0.87396667  0.12190000  1.0
  S2-  S108  1  0.12190000  0.45936667  0.12190000  1.0
  S2-  S109  1  0.12190000  0.12603333  0.12190000  1.0
  S2-  S110  1  0.12190000  0.79270000  0.12190000  1.0
  S2-  S111  1  0.87810000  0.45936667  0.87810000  1.0
  S2-  S112  1  0.87810000  0.12603333  0.87810000  1.0
  S2-  S113  1  0.87810000  0.79270000  0.87810000  1.0
  S2-  S114  1  0.87810000  0.37396667  0.62190000  1.0
  S2-  S115  1  0.87810000  0.04063333  0.62190000  1.0
  S2-  S116  1  0.87810000  0.70730000  0.62190000  1.0
  S2-  S117  1  0.62190000  0.45936667  0.62190000  1.0
  S2-  S118  1  0.62190000  0.12603333  0.62190000  1.0
  S2-  S119  1  0.62190000  0.79270000  0.62190000  1.0
  S2-  S120  1  0.62190000  0.54063333  0.37810000  1.0
  S2-  S121  1  0.62190000  0.20730000  0.37810000  1.0
  S2-  S122  1  0.62190000  0.87396667  0.37810000  1.0
  S2-  S123  1  0.37810000  0.45936667  0.37810000  1.0
  S2-  S124  1  0.37810000  0.12603333  0.37810000  1.0
  S2-  S125  1  0.37810000  0.79270000  0.37810000  1.0
  S2-  S126  1  0.37810000  0.54063333  0.62190000  1.0
  S2-  S127  1  0.37810000  0.20730000  0.62190000  1.0
  S2-  S128  1  0.37810000  0.87396667  0.62190000  1.0
  S2-  S129  1  0.50000000  0.50000000  0.00000000  1.0
  S2-  S130  1  0.50000000  0.16666667  0.00000000  1.0
  S2-  S131  1  0.50000000  0.83333333  0.00000000  1.0
  S2-  S132  1  0.50000000  0.66666667  0.50000000  1.0
  S2-  S133  1  0.50000000  0.33333333  0.50000000  1.0
  S2-  S134  1  0.50000000  0.00000000  0.50000000  1.0
  S2-  S135  1  0.25000000  0.41666667  0.75000000  1.0
  S2-  S136  1  0.25000000  0.08333333  0.75000000  1.0
  S2-  S137  1  0.25000000  0.75000000  0.75000000  1.0
  Cl-  Cl138  1  0.00000000  0.66666667  0.00000000  1.0
  Cl-  Cl139  1  0.00000000  0.33333333  0.00000000  1.0
  Cl-  Cl140  1  0.00000000  0.00000000  0.00000000  1.0
  Cl-  Cl141  1  0.00000000  0.50000000  0.50000000  1.0
  Cl-  Cl142  1  0.00000000  0.16666667  0.50000000  1.0
  Cl-  Cl143  1  0.00000000  0.83333333  0.50000000  1.0
  Cl-  Cl144  1  0.75000000  0.58333333  0.75000000  1.0
  Cl-  Cl145  1  0.75000000  0.25000000  0.75000000  1.0
  Cl-  Cl146  1  0.75000000  0.91666667  0.75000000  1.0
  Cl-  Cl147  1  0.75000000  0.41666667  0.25000000  1.0
  Cl-  Cl148  1  0.75000000  0.08333333  0.25000000  1.0
  Cl-  Cl149  1  0.75000000  0.75000000  0.25000000  1.0
  Cl-  Cl150  1  0.25000000  0.58333333  0.25000000  1.0
  Cl-  Cl151  1  0.25000000  0.25000000  0.25000000  1.0
  Cl-  Cl152  1  0.25000000  0.91666667  0.25000000  1.0
