# generated using pymatgen
data_Li23P4S19Cl5
_symmetry_space_group_name_H-M   'P 1'
_cell_length_a   29.52540000
_cell_length_b   9.84180000
_cell_length_c   9.84180000
_cell_angle_alpha   90.00000000
_cell_angle_beta   90.00000000
_cell_angle_gamma   90.00000000
_symmetry_Int_Tables_number   1
_chemical_formula_structural   Li23P4S19Cl5
_chemical_formula_sum   'Li69 P12 S57 Cl15'
_cell_volume   2859.86057367
_cell_formula_units_Z   3
loop_
 _symmetry_equiv_pos_site_id
 _symmetry_equiv_pos_as_xyz
  1  'x, y, z'
loop_
 _atom_type_symbol
 _atom_type_oxidation_number
  Li+  1.0
  P5+  5.0
  S2-  -2.0
  Cl-  -1.0
loop_
 _atom_site_type_symbol
 _atom_site_label
 _atom_site_symmetry_multiplicity
 _atom_site_fract_x
 _atom_site_fract_y
 _atom_site_fract_z
 _atom_site_occupancy
  Li+  Li0  1  0.32470000  0.67810000  0.67800000  1.0
  Li+  Li0  1  0.65803333  0.67810000  0.67800000  1.0
  Li+  Li0  1  0.99136667  0.67810000  0.67800000  1.0
  Li+  Li1  1  0.22600000  0.67810000  0.97410000  1.0
  Li+  Li1  1  0.55933333  0.67810000  0.97410000  1.0
  Li+  Li1  1  0.89266667  0.67810000  0.97410000  1.0
  Li+  Li2  1  0.00863333  0.32190000  0.67800000  1.0
  Li+  Li2  1  0.34196667  0.32190000  0.67800000  1.0
  Li+  Li2  1  0.67530000  0.32190000  0.67800000  1.0
  Li+  Li3  1  0.10730000  0.67800000  0.02590000  1.0
  Li+  Li3  1  0.44063333  0.67800000  0.02590000  1.0
  Li+  Li3  1  0.77396667  0.67800000  0.02590000  1.0
  Li+  Li4  1  0.05933333  0.52590000  0.32190000  1.0
  Li+  Li4  1  0.39266667  0.52590000  0.32190000  1.0
  Li+  Li4  1  0.72600000  0.52590000  0.32190000  1.0
  Li+  Li5  1  0.05933333  0.82190000  0.02590000  1.0
  Li+  Li5  1  0.39266667  0.82190000  0.02590000  1.0
  Li+  Li5  1  0.72600000  0.82190000  0.02590000  1.0
  Li+  Li6  1  0.17530000  0.82200000  0.67810000  1.0
  Li+  Li6  1  0.50863333  0.82200000  0.67810000  1.0
  Li+  Li6  1  0.84196667  0.82200000  0.67810000  1.0
  Li+  Li7  1  0.17530000  0.17800000  0.32190000  1.0
  Li+  Li7  1  0.50863333  0.17800000  0.32190000  1.0
  Li+  Li7  1  0.84196667  0.17800000  0.32190000  1.0
  Li+  Li8  1  0.27396667  0.17800000  0.02590000  1.0
  Li+  Li8  1  0.60730000  0.17800000  0.02590000  1.0
  Li+  Li8  1  0.94063333  0.17800000  0.02590000  1.0
  Li+  Li9  1  0.05936667  0.32200000  0.52590000  1.0
  Li+  Li9  1  0.39270000  0.32200000  0.52590000  1.0
  Li+  Li9  1  0.72603333  0.32200000  0.52590000  1.0
  Li+  Li10  1  0.05936667  0.02590000  0.82200000  1.0
  Li+  Li10  1  0.39270000  0.02590000  0.82200000  1.0
  Li+  Li10  1  0.72603333  0.02590000  0.82200000  1.0
  Li+  Li11  1  0.15803333  0.32190000  0.82200000  1.0
  Li+  Li11  1  0.49136667  0.32190000  0.82200000  1.0
  Li+  Li11  1  0.82470000  0.32190000  0.82200000  1.0
  Li+  Li12  1  0.27400000  0.67810000  0.52590000  1.0
  Li+  Li12  1  0.60733333  0.67810000  0.52590000  1.0
  Li+  Li12  1  0.94066667  0.67810000  0.52590000  1.0
  Li+  Li13  1  0.27400000  0.32190000  0.47410000  1.0
  Li+  Li13  1  0.60733333  0.32190000  0.47410000  1.0
  Li+  Li13  1  0.94066667  0.32190000  0.47410000  1.0
  Li+  Li14  1  0.17530000  0.32200000  0.17810000  1.0
  Li+  Li14  1  0.50863333  0.32200000  0.17810000  1.0
  Li+  Li14  1  0.84196667  0.32200000  0.17810000  1.0
  Li+  Li15  1  0.05936667  0.97410000  0.17800000  1.0
  Li+  Li15  1  0.39270000  0.97410000  0.17800000  1.0
  Li+  Li15  1  0.72603333  0.97410000  0.17800000  1.0
  Li+  Li16  1  0.32470000  0.17810000  0.17800000  1.0
  Li+  Li16  1  0.65803333  0.17810000  0.17800000  1.0
  Li+  Li16  1  0.99136667  0.17810000  0.17800000  1.0
  Li+  Li17  1  0.32470000  0.82200000  0.82190000  1.0
  Li+  Li17  1  0.65803333  0.82200000  0.82190000  1.0
  Li+  Li17  1  0.99136667  0.82200000  0.82190000  1.0
  Li+  Li18  1  0.10733333  0.47410000  0.82190000  1.0
  Li+  Li18  1  0.44066667  0.47410000  0.82190000  1.0
  Li+  Li18  1  0.77400000  0.47410000  0.82190000  1.0
  Li+  Li19  1  0.00863333  0.82200000  0.17810000  1.0
  Li+  Li19  1  0.34196667  0.82200000  0.17810000  1.0
  Li+  Li19  1  0.67530000  0.82200000  0.17810000  1.0
  Li+  Li20  1  0.08633333  0.04800000  0.54800000  1.0
  Li+  Li20  1  0.41966667  0.04800000  0.54800000  1.0
  Li+  Li20  1  0.75300000  0.04800000  0.54800000  1.0
  Li+  Li21  1  0.18266667  0.95200000  0.74100000  1.0
  Li+  Li21  1  0.51600000  0.95200000  0.74100000  1.0
  Li+  Li21  1  0.84933333  0.95200000  0.74100000  1.0
  Li+  Li22  1  0.25300000  0.95200000  0.95200000  1.0
  Li+  Li22  1  0.58633333  0.95200000  0.95200000  1.0
  Li+  Li22  1  0.91966667  0.95200000  0.95200000  1.0
  P5+  P1  1  0.00000000  0.00000000  0.50000000  1.0
  P5+  P1  1  0.33333333  0.00000000  0.50000000  1.0
  P5+  P1  1  0.66666667  0.00000000  0.50000000  1.0
  P5+  P1  1  0.00000000  0.50000000  0.00000000  1.0
  P5+  P1  1  0.33333333  0.50000000  0.00000000  1.0
  P5+  P1  1  0.66666667  0.50000000  0.00000000  1.0
  P5+  P1  1  0.16666667  0.00000000  0.00000000  1.0
  P5+  P1  1  0.50000000  0.00000000  0.00000000  1.0
  P5+  P1  1  0.83333333  0.00000000  0.00000000  1.0
  P5+  P1  1  0.16666667  0.50000000  0.50000000  1.0
  P5+  P1  1  0.50000000  0.50000000  0.50000000  1.0
  P5+  P1  1  0.83333333  0.50000000  0.50000000  1.0
  S2-  S2  1  0.04063333  0.87810000  0.62190000  1.0
  S2-  S2  1  0.37396667  0.87810000  0.62190000  1.0
  S2-  S2  1  0.70730000  0.87810000  0.62190000  1.0
  S2-  S2  1  0.29270000  0.37810000  0.87810000  1.0
  S2-  S2  1  0.62603333  0.37810000  0.87810000  1.0
  S2-  S2  1  0.95936667  0.37810000  0.87810000  1.0
  S2-  S2  1  0.29270000  0.62190000  0.12190000  1.0
  S2-  S2  1  0.62603333  0.62190000  0.12190000  1.0
  S2-  S2  1  0.95936667  0.62190000  0.12190000  1.0
  S2-  S2  1  0.29270000  0.87810000  0.37810000  1.0
  S2-  S2  1  0.62603333  0.87810000  0.37810000  1.0
  S2-  S2  1  0.95936667  0.87810000  0.37810000  1.0
  S2-  S2  1  0.04063333  0.37810000  0.12190000  1.0
  S2-  S2  1  0.37396667  0.37810000  0.12190000  1.0
  S2-  S2  1  0.70730000  0.37810000  0.12190000  1.0
  S2-  S2  1  0.04063333  0.62190000  0.87810000  1.0
  S2-  S2  1  0.37396667  0.62190000  0.87810000  1.0
  S2-  S2  1  0.70730000  0.62190000  0.87810000  1.0
  S2-  S2  1  0.04063333  0.12190000  0.37810000  1.0
  S2-  S2  1  0.37396667  0.12190000  0.37810000  1.0
  S2-  S2  1  0.70730000  0.12190000  0.37810000  1.0
  S2-  S2  1  0.12603333  0.87810000  0.87810000  1.0
  S2-  S2  1  0.45936667  0.87810000  0.87810000  1.0
  S2-  S2  1  0.79270000  0.87810000  0.87810000  1.0
  S2-  S2  1  0.12603333  0.12190000  0.12190000  1.0
  S2-  S2  1  0.45936667  0.12190000  0.12190000  1.0
  S2-  S2  1  0.79270000  0.12190000  0.12190000  1.0
  S2-  S2  1  0.20730000  0.87810000  0.12190000  1.0
  S2-  S2  1  0.54063333  0.87810000  0.12190000  1.0
  S2-  S2  1  0.87396667  0.87810000  0.12190000  1.0
  S2-  S2  1  0.20730000  0.12190000  0.87810000  1.0
  S2-  S2  1  0.54063333  0.12190000  0.87810000  1.0
  S2-  S2  1  0.87396667  0.12190000  0.87810000  1.0
  S2-  S2  1  0.29270000  0.12190000  0.62190000  1.0
  S2-  S2  1  0.62603333  0.12190000  0.62190000  1.0
  S2-  S2  1  0.95936667  0.12190000  0.62190000  1.0
  S2-  S2  1  0.20730000  0.37810000  0.62190000  1.0
  S2-  S2  1  0.54063333  0.37810000  0.62190000  1.0
  S2-  S2  1  0.87396667  0.37810000  0.62190000  1.0
  S2-  S2  1  0.12603333  0.37810000  0.37810000  1.0
  S2-  S2  1  0.45936667  0.37810000  0.37810000  1.0
  S2-  S2  1  0.79270000  0.37810000  0.37810000  1.0
  S2-  S2  1  0.20730000  0.62190000  0.37810000  1.0
  S2-  S2  1  0.54063333  0.62190000  0.37810000  1.0
  S2-  S2  1  0.87396667  0.62190000  0.37810000  1.0
  S2-  S2  1  0.12603333  0.62190000  0.62190000  1.0
  S2-  S2  1  0.45936667  0.62190000  0.62190000  1.0
  S2-  S2  1  0.79270000  0.62190000  0.62190000  1.0
  S2-  S43  1  0.16666667  0.50000000  0.00000000  1.0
  S2-  S43  1  0.50000000  0.50000000  0.00000000  1.0
  S2-  S43  1  0.83333333  0.50000000  0.00000000  1.0
  S2-  S44  1  0.00000000  0.50000000  0.50000000  1.0
  S2-  S44  1  0.33333333  0.50000000  0.50000000  1.0
  S2-  S44  1  0.66666667  0.50000000  0.50000000  1.0
  S2-  S45  1  0.25000000  0.75000000  0.75000000  1.0
  S2-  S45  1  0.58333333  0.75000000  0.75000000  1.0
  S2-  S45  1  0.91666667  0.75000000  0.75000000  1.0
  Cl-  Cl46  1  0.00000000  0.00000000  0.00000000  1.0
  Cl-  Cl46  1  0.33333333  0.00000000  0.00000000  1.0
  Cl-  Cl46  1  0.66666667  0.00000000  0.00000000  1.0
  Cl-  Cl47  1  0.16666667  0.00000000  0.50000000  1.0
  Cl-  Cl47  1  0.50000000  0.00000000  0.50000000  1.0
  Cl-  Cl47  1  0.83333333  0.00000000  0.50000000  1.0
  Cl-  Cl48  1  0.08333333  0.25000000  0.75000000  1.0
  Cl-  Cl48  1  0.41666667  0.25000000  0.75000000  1.0
  Cl-  Cl48  1  0.75000000  0.25000000  0.75000000  1.0
  Cl-  Cl49  1  0.25000000  0.25000000  0.25000000  1.0
  Cl-  Cl49  1  0.58333333  0.25000000  0.25000000  1.0
  Cl-  Cl49  1  0.91666667  0.25000000  0.25000000  1.0
  Cl-  Cl50  1  0.08333333  0.75000000  0.25000000  1.0
  Cl-  Cl50  1  0.41666667  0.75000000  0.25000000  1.0
  Cl-  Cl50  1  0.75000000  0.75000000  0.25000000  1.0
