# generated using pymatgen
data_Sr3Li4Nb6O20
_symmetry_space_group_name_H-M   'P 1'
_cell_length_a   23.71800000
_cell_length_b   13.31715153
_cell_length_c   7.90600000
_cell_angle_alpha   98.53523673
_cell_angle_beta   90.00000000
_cell_angle_gamma   81.46476327
_symmetry_Int_Tables_number   1
_chemical_formula_structural   Sr3Li4Nb6O20
_chemical_formula_sum   'Sr18 Li24 Nb36 O120'
_cell_volume   2441.53265228
_cell_formula_units_Z   6
loop_
 _symmetry_equiv_pos_site_id
 _symmetry_equiv_pos_as_xyz
  1  'x, y, z'
loop_
 _atom_type_symbol
 _atom_type_oxidation_number
  Sr2+  2.0
  Li+  1.0
  Nb5+  5.0
  O2-  -2.0
loop_
 _atom_site_type_symbol
 _atom_site_label
 _atom_site_symmetry_multiplicity
 _atom_site_fract_x
 _atom_site_fract_y
 _atom_site_fract_z
 _atom_site_occupancy
  Sr2+  Sr0  1  0.06997667  0.16028000  0.04007000  1.0
  Sr2+  Sr1  1  0.40331000  0.16028000  0.04007000  1.0
  Sr2+  Sr2  1  0.73664333  0.16028000  0.04007000  1.0
  Sr2+  Sr3  1  0.23985817  0.16090258  0.54072806  1.0
  Sr2+  Sr4  1  0.56997667  0.16028000  0.54007000  1.0
  Sr2+  Sr5  1  0.90331000  0.16028000  0.54007000  1.0
  Sr2+  Sr6  1  0.09669000  0.83972000  0.45993000  1.0
  Sr2+  Sr7  1  0.43222868  0.83829808  0.46161255  1.0
  Sr2+  Sr8  1  0.76335667  0.83972000  0.45993000  1.0
  Sr2+  Sr9  1  0.09669000  0.83972000  0.95993000  1.0
  Sr2+  Sr10  1  0.43002333  0.83972000  0.95993000  1.0
  Sr2+  Sr11  1  0.76335667  0.83972000  0.95993000  1.0
  Sr2+  Sr12  1  0.26335667  0.83972000  0.45993000  1.0
  Sr2+  Sr13  1  0.59669000  0.83972000  0.45993000  1.0
  Sr2+  Sr14  1  0.93002333  0.83972000  0.45993000  1.0
  Sr2+  Sr15  1  0.26335667  0.83972000  0.95993000  1.0
  Sr2+  Sr16  1  0.59669000  0.83972000  0.95993000  1.0
  Sr2+  Sr17  1  0.92872967  0.84341720  0.95973548  1.0
  Li+  Li18  1  0.12500000  0.50000000  0.62500000  1.0
  Li+  Li19  1  0.45833333  0.50000000  0.62500000  1.0
  Li+  Li20  1  0.79166667  0.50000000  0.62500000  1.0
  Li+  Li21  1  0.12695401  0.49769436  0.12566225  1.0
  Li+  Li22  1  0.45833333  0.50000000  0.12500000  1.0
  Li+  Li23  1  0.79166667  0.50000000  0.12500000  1.0
  Li+  Li24  1  0.29166667  0.50000000  0.62500000  1.0
  Li+  Li25  1  0.62500000  0.50000000  0.62500000  1.0
  Li+  Li26  1  0.95872996  0.49646916  0.62616931  1.0
  Li+  Li27  1  0.29166667  0.50000000  0.12500000  1.0
  Li+  Li28  1  0.62500000  0.50000000  0.12500000  1.0
  Li+  Li29  1  0.96289556  0.50168246  0.11988018  1.0
  Li+  Li30  1  0.04166667  0.50000000  0.37500000  1.0
  Li+  Li31  1  0.37500000  0.50000000  0.37500000  1.0
  Li+  Li32  1  0.70833333  0.50000000  0.37500000  1.0
  Li+  Li33  1  0.04166667  0.50000000  0.87500000  1.0
  Li+  Li34  1  0.37500000  0.50000000  0.87500000  1.0
  Li+  Li35  1  0.70833333  0.50000000  0.87500000  1.0
  Li+  Li36  1  0.20994369  0.50266143  0.38129851  1.0
  Li+  Li37  1  0.54315838  0.50188093  0.37293999  1.0
  Li+  Li38  1  0.87500000  0.50000000  0.37500000  1.0
  Li+  Li39  1  0.20833333  0.50000000  0.87500000  1.0
  Li+  Li40  1  0.54214207  0.49591561  0.87543437  1.0
  Li+  Li41  1  0.87500000  0.50000000  0.87500000  1.0
  Nb5+  Nb42  1  0.00000000  0.00000000  0.75000000  1.0
  Nb5+  Nb43  1  0.33333333  0.00000000  0.75000000  1.0
  Nb5+  Nb44  1  0.66666667  0.00000000  0.75000000  1.0
  Nb5+  Nb45  1  0.00000000  0.00000000  0.25000000  1.0
  Nb5+  Nb46  1  0.33333333  0.00000000  0.25000000  1.0
  Nb5+  Nb47  1  0.66666667  0.00000000  0.25000000  1.0
  Nb5+  Nb48  1  0.17077632  0.00178894  0.75107429  1.0
  Nb5+  Nb49  1  0.50680303  0.00027560  0.75461449  1.0
  Nb5+  Nb50  1  0.83333333  0.00000000  0.75000000  1.0
  Nb5+  Nb51  1  0.16437995  0.00085386  0.25060697  1.0
  Nb5+  Nb52  1  0.50308554  0.99904964  0.24810425  1.0
  Nb5+  Nb53  1  0.83333333  0.00000000  0.25000000  1.0
  Nb5+  Nb54  1  0.14043333  0.31480000  0.32870000  1.0
  Nb5+  Nb55  1  0.47376667  0.31480000  0.32870000  1.0
  Nb5+  Nb56  1  0.80710000  0.31480000  0.32870000  1.0
  Nb5+  Nb57  1  0.14043333  0.31480000  0.82870000  1.0
  Nb5+  Nb58  1  0.47376667  0.31480000  0.82870000  1.0
  Nb5+  Nb59  1  0.80710000  0.31480000  0.82870000  1.0
  Nb5+  Nb60  1  0.30710000  0.31480000  0.32870000  1.0
  Nb5+  Nb61  1  0.64043333  0.31480000  0.32870000  1.0
  Nb5+  Nb62  1  0.97799320  0.30950824  0.32937683  1.0
  Nb5+  Nb63  1  0.30710000  0.31480000  0.82870000  1.0
  Nb5+  Nb64  1  0.64043333  0.31480000  0.82870000  1.0
  Nb5+  Nb65  1  0.97376667  0.31480000  0.82870000  1.0
  Nb5+  Nb66  1  0.02623333  0.68520000  0.67130000  1.0
  Nb5+  Nb67  1  0.36040231  0.69099706  0.66813641  1.0
  Nb5+  Nb68  1  0.69290000  0.68520000  0.67130000  1.0
  Nb5+  Nb69  1  0.02837913  0.68719587  0.16982221  1.0
  Nb5+  Nb70  1  0.36117044  0.68490405  0.17363106  1.0
  Nb5+  Nb71  1  0.69290000  0.68520000  0.17130000  1.0
  Nb5+  Nb72  1  0.19290000  0.68520000  0.67130000  1.0
  Nb5+  Nb73  1  0.52615074  0.68039864  0.66880718  1.0
  Nb5+  Nb74  1  0.85956667  0.68520000  0.67130000  1.0
  Nb5+  Nb75  1  0.19245765  0.68233208  0.17001120  1.0
  Nb5+  Nb76  1  0.52623333  0.68520000  0.17130000  1.0
  Nb5+  Nb77  1  0.85956667  0.68520000  0.17130000  1.0
  O2-  O78  1  0.12870000  0.45560000  0.36390000  1.0
  O2-  O79  1  0.46203333  0.45560000  0.36390000  1.0
  O2-  O80  1  0.79536667  0.45560000  0.36390000  1.0
  O2-  O81  1  0.12870000  0.45560000  0.86390000  1.0
  O2-  O82  1  0.46203333  0.45560000  0.86390000  1.0
  O2-  O83  1  0.79536667  0.45560000  0.86390000  1.0
  O2-  O84  1  0.29536667  0.45560000  0.36390000  1.0
  O2-  O85  1  0.62870000  0.45560000  0.36390000  1.0
  O2-  O86  1  0.96203333  0.45560000  0.36390000  1.0
  O2-  O87  1  0.29944766  0.45614381  0.86478053  1.0
  O2-  O88  1  0.62870000  0.45560000  0.86390000  1.0
  O2-  O89  1  0.95800926  0.45477254  0.85871382  1.0
  O2-  O90  1  0.03796667  0.54440000  0.63610000  1.0
  O2-  O91  1  0.36705723  0.54231618  0.63328817  1.0
  O2-  O92  1  0.70453376  0.54514547  0.63459581  1.0
  O2-  O93  1  0.03796667  0.54440000  0.13610000  1.0
  O2-  O94  1  0.37130000  0.54440000  0.13610000  1.0
  O2-  O95  1  0.70328759  0.54532521  0.13478891  1.0
  O2-  O96  1  0.20463333  0.54440000  0.63610000  1.0
  O2-  O97  1  0.53574155  0.54677350  0.63724900  1.0
  O2-  O98  1  0.87130000  0.54440000  0.63610000  1.0
  O2-  O99  1  0.20409472  0.53939446  0.13699233  1.0
  O2-  O100  1  0.53811062  0.54541248  0.13132374  1.0
  O2-  O101  1  0.87130000  0.54440000  0.13610000  1.0
  O2-  O102  1  0.05840000  0.29920000  0.32480000  1.0
  O2-  O103  1  0.39173333  0.29920000  0.32480000  1.0
  O2-  O104  1  0.72519790  0.30228083  0.32140788  1.0
  O2-  O105  1  0.05493549  0.30265916  0.82319085  1.0
  O2-  O106  1  0.39173333  0.29920000  0.82480000  1.0
  O2-  O107  1  0.72506667  0.29920000  0.82480000  1.0
  O2-  O108  1  0.22506667  0.29920000  0.32480000  1.0
  O2-  O109  1  0.55840000  0.29920000  0.32480000  1.0
  O2-  O110  1  0.89173333  0.29920000  0.32480000  1.0
  O2-  O111  1  0.22506667  0.29920000  0.82480000  1.0
  O2-  O112  1  0.55922921  0.30100696  0.82345966  1.0
  O2-  O113  1  0.89173333  0.29920000  0.82480000  1.0
  O2-  O114  1  0.14173333  0.29920000  0.57480000  1.0
  O2-  O115  1  0.47701320  0.29702778  0.57131177  1.0
  O2-  O116  1  0.80582746  0.30225838  0.57492375  1.0
  O2-  O117  1  0.14173333  0.29920000  0.07480000  1.0
  O2-  O118  1  0.47506667  0.29920000  0.07480000  1.0
  O2-  O119  1  0.80840000  0.29920000  0.07480000  1.0
  O2-  O120  1  0.30840000  0.29920000  0.57480000  1.0
  O2-  O121  1  0.64173333  0.29920000  0.57480000  1.0
  O2-  O122  1  0.97506667  0.29920000  0.57480000  1.0
  O2-  O123  1  0.30840000  0.29920000  0.07480000  1.0
  O2-  O124  1  0.64173333  0.29920000  0.07480000  1.0
  O2-  O125  1  0.97630957  0.29904419  0.07353207  1.0
  O2-  O126  1  0.10826667  0.70080000  0.67520000  1.0
  O2-  O127  1  0.44160000  0.70080000  0.67520000  1.0
  O2-  O128  1  0.77493333  0.70080000  0.67520000  1.0
  O2-  O129  1  0.10828814  0.69988708  0.17225139  1.0
  O2-  O130  1  0.44160000  0.70080000  0.17520000  1.0
  O2-  O131  1  0.77493333  0.70080000  0.17520000  1.0
  O2-  O132  1  0.27493333  0.70080000  0.67520000  1.0
  O2-  O133  1  0.60826667  0.70080000  0.67520000  1.0
  O2-  O134  1  0.94160000  0.70080000  0.67520000  1.0
  O2-  O135  1  0.27377437  0.70114628  0.17652307  1.0
  O2-  O136  1  0.60826667  0.70080000  0.17520000  1.0
  O2-  O137  1  0.93744035  0.70296289  0.17198431  1.0
  O2-  O138  1  0.02493333  0.70080000  0.42520000  1.0
  O2-  O139  1  0.35826667  0.70080000  0.42520000  1.0
  O2-  O140  1  0.69160000  0.70080000  0.42520000  1.0
  O2-  O141  1  0.02493333  0.70080000  0.92520000  1.0
  O2-  O142  1  0.35826667  0.70080000  0.92520000  1.0
  O2-  O143  1  0.69160000  0.70080000  0.92520000  1.0
  O2-  O144  1  0.19112112  0.69830481  0.42608687  1.0
  O2-  O145  1  0.52493333  0.70080000  0.42520000  1.0
  O2-  O146  1  0.85826667  0.70080000  0.42520000  1.0
  O2-  O147  1  0.19160000  0.70080000  0.92520000  1.0
  O2-  O148  1  0.52493333  0.70080000  0.92520000  1.0
  O2-  O149  1  0.85826667  0.70080000  0.92520000  1.0
  O2-  O150  1  0.15593857  0.14999386  0.28676118  1.0
  O2-  O151  1  0.48758333  0.14900000  0.28725000  1.0
  O2-  O152  1  0.82091667  0.14900000  0.28725000  1.0
  O2-  O153  1  0.15425000  0.14900000  0.78725000  1.0
  O2-  O154  1  0.48758333  0.14900000  0.78725000  1.0
  O2-  O155  1  0.82091667  0.14900000  0.78725000  1.0
  O2-  O156  1  0.32091667  0.14900000  0.28725000  1.0
  O2-  O157  1  0.65425000  0.14900000  0.28725000  1.0
  O2-  O158  1  0.98758333  0.14900000  0.28725000  1.0
  O2-  O159  1  0.32327482  0.15238594  0.78475584  1.0
  O2-  O160  1  0.65273970  0.14461534  0.78803436  1.0
  O2-  O161  1  0.98758333  0.14900000  0.78725000  1.0
  O2-  O162  1  0.01241667  0.85100000  0.71275000  1.0
  O2-  O163  1  0.34270000  0.85308520  0.71298448  1.0
  O2-  O164  1  0.67908333  0.85100000  0.71275000  1.0
  O2-  O165  1  0.01569927  0.84900914  0.21358725  1.0
  O2-  O166  1  0.34772310  0.85006302  0.21006489  1.0
  O2-  O167  1  0.68173142  0.85128542  0.21278013  1.0
  O2-  O168  1  0.17908333  0.85100000  0.71275000  1.0
  O2-  O169  1  0.51241667  0.85100000  0.71275000  1.0
  O2-  O170  1  0.84575000  0.85100000  0.71275000  1.0
  O2-  O171  1  0.18135464  0.84747237  0.21396118  1.0
  O2-  O172  1  0.51241667  0.85100000  0.21275000  1.0
  O2-  O173  1  0.84575000  0.85100000  0.21275000  1.0
  O2-  O174  1  0.08333333  0.00000000  0.71750000  1.0
  O2-  O175  1  0.41855293  0.99862692  0.71798369  1.0
  O2-  O176  1  0.75000000  0.00000000  0.71750000  1.0
  O2-  O177  1  0.25000000  0.00000000  0.71750000  1.0
  O2-  O178  1  0.58333333  0.00000000  0.71750000  1.0
  O2-  O179  1  0.91666667  0.00000000  0.71750000  1.0
  O2-  O180  1  0.08333333  0.00000000  0.28250000  1.0
  O2-  O181  1  0.41666667  0.00000000  0.28250000  1.0
  O2-  O182  1  0.75000000  0.00000000  0.28250000  1.0
  O2-  O183  1  0.25351307  0.00019353  0.28560691  1.0
  O2-  O184  1  0.58333333  0.00000000  0.28250000  1.0
  O2-  O185  1  0.91715998  0.99866304  0.27902273  1.0
  O2-  O186  1  0.32250000  0.00000000  0.50000000  1.0
  O2-  O187  1  0.65583333  0.00000000  0.50000000  1.0
  O2-  O188  1  0.98916667  0.00000000  0.50000000  1.0
  O2-  O189  1  0.01083333  0.00000000  0.00000000  1.0
  O2-  O190  1  0.34416667  0.00000000  0.00000000  1.0
  O2-  O191  1  0.67750000  0.00000000  0.00000000  1.0
  O2-  O192  1  0.17750000  0.00000000  0.50000000  1.0
  O2-  O193  1  0.51083333  0.00000000  0.50000000  1.0
  O2-  O194  1  0.84416667  0.00000000  0.50000000  1.0
  O2-  O195  1  0.17750000  0.00000000  0.00000000  1.0
  O2-  O196  1  0.51044876  0.00318122  0.99981560  1.0
  O2-  O197  1  0.84416667  0.00000000  0.00000000  1.0
