# generated using pymatgen
data_Sr3Li4Nb6O20
_symmetry_space_group_name_H-M   'P 1'
_cell_length_a   7.83093439
_cell_length_b   23.49280316
_cell_length_c   13.19070830
_cell_angle_alpha   81.46476327
_cell_angle_beta   81.46476327
_cell_angle_gamma   90.00000000
_symmetry_Int_Tables_number   1
_chemical_formula_structural   Sr3Li4Nb6O20
_chemical_formula_sum   'Sr18 Li24 Nb36 O120'
_cell_volume   2372.64554196
_cell_formula_units_Z   6
loop_
 _symmetry_equiv_pos_site_id
 _symmetry_equiv_pos_as_xyz
  1  'x, y, z'
loop_
 _atom_type_symbol
 _atom_type_oxidation_number
  Sr2+  2.0
  Li+  1.0
  Nb5+  5.0
  O2-  -2.0
loop_
 _atom_site_type_symbol
 _atom_site_label
 _atom_site_symmetry_multiplicity
 _atom_site_fract_x
 _atom_site_fract_y
 _atom_site_fract_z
 _atom_site_occupancy
  Sr2+  Sr0  1  0.29007000  0.59669000  0.83972000  1.0
  Sr2+  Sr1  1  0.29007000  0.26335667  0.83972000  1.0
  Sr2+  Sr2  1  0.29007000  0.93002333  0.83972000  1.0
  Sr2+  Sr3  1  0.79007000  0.43002333  0.83972000  1.0
  Sr2+  Sr4  1  0.79007000  0.09669000  0.83972000  1.0
  Sr2+  Sr5  1  0.79007000  0.76335667  0.83972000  1.0
  Sr2+  Sr6  1  0.70993000  0.56997667  0.16028000  1.0
  Sr2+  Sr7  1  0.70993000  0.23664333  0.16028000  1.0
  Sr2+  Sr8  1  0.70993000  0.90331000  0.16028000  1.0
  Sr2+  Sr9  1  0.20993000  0.56997667  0.16028000  1.0
  Sr2+  Sr10  1  0.20993000  0.23664333  0.16028000  1.0
  Sr2+  Sr11  1  0.20993000  0.90331000  0.16028000  1.0
  Sr2+  Sr12  1  0.70993000  0.40331000  0.16028000  1.0
  Sr2+  Sr13  1  0.70993000  0.06997667  0.16028000  1.0
  Sr2+  Sr14  1  0.70993000  0.73664333  0.16028000  1.0
  Sr2+  Sr15  1  0.20993000  0.40331000  0.16028000  1.0
  Sr2+  Sr16  1  0.20993000  0.06997667  0.16028000  1.0
  Sr2+  Sr17  1  0.20993000  0.73664333  0.16028000  1.0
  Li+  Li18  1  0.87500000  0.54166667  0.50000000  1.0
  Li+  Li19  1  0.87500000  0.20833333  0.50000000  1.0
  Li+  Li20  1  0.87500000  0.87500000  0.50000000  1.0
  Li+  Li21  1  0.37500000  0.54166667  0.50000000  1.0
  Li+  Li22  1  0.37500000  0.20833333  0.50000000  1.0
  Li+  Li23  1  0.37500000  0.87500000  0.50000000  1.0
  Li+  Li24  1  0.87500000  0.37500000  0.50000000  1.0
  Li+  Li25  1  0.87500000  0.04166667  0.50000000  1.0
  Li+  Li26  1  0.87500000  0.70833333  0.50000000  1.0
  Li+  Li27  1  0.37500000  0.37500000  0.50000000  1.0
  Li+  Li28  1  0.37500000  0.04166667  0.50000000  1.0
  Li+  Li29  1  0.37500000  0.70833333  0.50000000  1.0
  Li+  Li30  1  0.62500000  0.62500000  0.50000000  1.0
  Li+  Li31  1  0.62500000  0.29166667  0.50000000  1.0
  Li+  Li32  1  0.62500000  0.95833333  0.50000000  1.0
  Li+  Li33  1  0.12500000  0.62500000  0.50000000  1.0
  Li+  Li34  1  0.12500000  0.29166667  0.50000000  1.0
  Li+  Li35  1  0.12500000  0.95833333  0.50000000  1.0
  Li+  Li36  1  0.62500000  0.45833333  0.50000000  1.0
  Li+  Li37  1  0.62500000  0.12500000  0.50000000  1.0
  Li+  Li38  1  0.62500000  0.79166667  0.50000000  1.0
  Li+  Li39  1  0.12500000  0.45833333  0.50000000  1.0
  Li+  Li40  1  0.12500000  0.12500000  0.50000000  1.0
  Li+  Li41  1  0.12500000  0.79166667  0.50000000  1.0
  Nb5+  Nb42  1  0.00000000  0.66666667  0.00000000  1.0
  Nb5+  Nb43  1  0.00000000  0.33333333  0.00000000  1.0
  Nb5+  Nb44  1  0.00000000  0.00000000  0.00000000  1.0
  Nb5+  Nb45  1  0.50000000  0.66666667  0.00000000  1.0
  Nb5+  Nb46  1  0.50000000  0.33333333  0.00000000  1.0
  Nb5+  Nb47  1  0.50000000  0.00000000  0.00000000  1.0
  Nb5+  Nb48  1  0.00000000  0.50000000  0.00000000  1.0
  Nb5+  Nb49  1  0.00000000  0.16666667  0.00000000  1.0
  Nb5+  Nb50  1  0.00000000  0.83333333  0.00000000  1.0
  Nb5+  Nb51  1  0.50000000  0.50000000  0.00000000  1.0
  Nb5+  Nb52  1  0.50000000  0.16666667  0.00000000  1.0
  Nb5+  Nb53  1  0.50000000  0.83333333  0.00000000  1.0
  Nb5+  Nb54  1  0.57870000  0.52623333  0.68520000  1.0
  Nb5+  Nb55  1  0.57870000  0.19290000  0.68520000  1.0
  Nb5+  Nb56  1  0.57870000  0.85956667  0.68520000  1.0
  Nb5+  Nb57  1  0.07870000  0.52623333  0.68520000  1.0
  Nb5+  Nb58  1  0.07870000  0.19290000  0.68520000  1.0
  Nb5+  Nb59  1  0.07870000  0.85956667  0.68520000  1.0
  Nb5+  Nb60  1  0.57870000  0.35956667  0.68520000  1.0
  Nb5+  Nb61  1  0.57870000  0.02623333  0.68520000  1.0
  Nb5+  Nb62  1  0.57870000  0.69290000  0.68520000  1.0
  Nb5+  Nb63  1  0.07870000  0.35956667  0.68520000  1.0
  Nb5+  Nb64  1  0.07870000  0.02623333  0.68520000  1.0
  Nb5+  Nb65  1  0.07870000  0.69290000  0.68520000  1.0
  Nb5+  Nb66  1  0.92130000  0.64043333  0.31480000  1.0
  Nb5+  Nb67  1  0.92130000  0.30710000  0.31480000  1.0
  Nb5+  Nb68  1  0.92130000  0.97376667  0.31480000  1.0
  Nb5+  Nb69  1  0.42130000  0.64043333  0.31480000  1.0
  Nb5+  Nb70  1  0.42130000  0.30710000  0.31480000  1.0
  Nb5+  Nb71  1  0.42130000  0.97376667  0.31480000  1.0
  Nb5+  Nb72  1  0.92130000  0.47376667  0.31480000  1.0
  Nb5+  Nb73  1  0.92130000  0.14043333  0.31480000  1.0
  Nb5+  Nb74  1  0.92130000  0.80710000  0.31480000  1.0
  Nb5+  Nb75  1  0.42130000  0.47376667  0.31480000  1.0
  Nb5+  Nb76  1  0.42130000  0.14043333  0.31480000  1.0
  Nb5+  Nb77  1  0.42130000  0.80710000  0.31480000  1.0
  O2-  O78  1  0.61390000  0.53796667  0.54440000  1.0
  O2-  O79  1  0.61390000  0.20463333  0.54440000  1.0
  O2-  O80  1  0.61390000  0.87130000  0.54440000  1.0
  O2-  O81  1  0.11390000  0.53796667  0.54440000  1.0
  O2-  O82  1  0.11390000  0.20463333  0.54440000  1.0
  O2-  O83  1  0.11390000  0.87130000  0.54440000  1.0
  O2-  O84  1  0.61390000  0.37130000  0.54440000  1.0
  O2-  O85  1  0.61390000  0.03796667  0.54440000  1.0
  O2-  O86  1  0.61390000  0.70463333  0.54440000  1.0
  O2-  O87  1  0.11390000  0.37130000  0.54440000  1.0
  O2-  O88  1  0.11390000  0.03796667  0.54440000  1.0
  O2-  O89  1  0.11390000  0.70463333  0.54440000  1.0
  O2-  O90  1  0.88610000  0.62870000  0.45560000  1.0
  O2-  O91  1  0.88610000  0.29536667  0.45560000  1.0
  O2-  O92  1  0.88610000  0.96203333  0.45560000  1.0
  O2-  O93  1  0.38610000  0.62870000  0.45560000  1.0
  O2-  O94  1  0.38610000  0.29536667  0.45560000  1.0
  O2-  O95  1  0.38610000  0.96203333  0.45560000  1.0
  O2-  O96  1  0.88610000  0.46203333  0.45560000  1.0
  O2-  O97  1  0.88610000  0.12870000  0.45560000  1.0
  O2-  O98  1  0.88610000  0.79536667  0.45560000  1.0
  O2-  O99  1  0.38610000  0.46203333  0.45560000  1.0
  O2-  O100  1  0.38610000  0.12870000  0.45560000  1.0
  O2-  O101  1  0.38610000  0.79536667  0.45560000  1.0
  O2-  O102  1  0.57480000  0.60826667  0.70080000  1.0
  O2-  O103  1  0.57480000  0.27493333  0.70080000  1.0
  O2-  O104  1  0.57480000  0.94160000  0.70080000  1.0
  O2-  O105  1  0.07480000  0.60826667  0.70080000  1.0
  O2-  O106  1  0.07480000  0.27493333  0.70080000  1.0
  O2-  O107  1  0.07480000  0.94160000  0.70080000  1.0
  O2-  O108  1  0.57480000  0.44160000  0.70080000  1.0
  O2-  O109  1  0.57480000  0.10826667  0.70080000  1.0
  O2-  O110  1  0.57480000  0.77493333  0.70080000  1.0
  O2-  O111  1  0.07480000  0.44160000  0.70080000  1.0
  O2-  O112  1  0.07480000  0.10826667  0.70080000  1.0
  O2-  O113  1  0.07480000  0.77493333  0.70080000  1.0
  O2-  O114  1  0.82480000  0.52493333  0.70080000  1.0
  O2-  O115  1  0.82480000  0.19160000  0.70080000  1.0
  O2-  O116  1  0.82480000  0.85826667  0.70080000  1.0
  O2-  O117  1  0.32480000  0.52493333  0.70080000  1.0
  O2-  O118  1  0.32480000  0.19160000  0.70080000  1.0
  O2-  O119  1  0.32480000  0.85826667  0.70080000  1.0
  O2-  O120  1  0.82480000  0.35826667  0.70080000  1.0
  O2-  O121  1  0.82480000  0.02493333  0.70080000  1.0
  O2-  O122  1  0.82480000  0.69160000  0.70080000  1.0
  O2-  O123  1  0.32480000  0.35826667  0.70080000  1.0
  O2-  O124  1  0.32480000  0.02493333  0.70080000  1.0
  O2-  O125  1  0.32480000  0.69160000  0.70080000  1.0
  O2-  O126  1  0.92520000  0.55840000  0.29920000  1.0
  O2-  O127  1  0.92520000  0.22506667  0.29920000  1.0
  O2-  O128  1  0.92520000  0.89173333  0.29920000  1.0
  O2-  O129  1  0.42520000  0.55840000  0.29920000  1.0
  O2-  O130  1  0.42520000  0.22506667  0.29920000  1.0
  O2-  O131  1  0.42520000  0.89173333  0.29920000  1.0
  O2-  O132  1  0.92520000  0.39173333  0.29920000  1.0
  O2-  O133  1  0.92520000  0.05840000  0.29920000  1.0
  O2-  O134  1  0.92520000  0.72506667  0.29920000  1.0
  O2-  O135  1  0.42520000  0.39173333  0.29920000  1.0
  O2-  O136  1  0.42520000  0.05840000  0.29920000  1.0
  O2-  O137  1  0.42520000  0.72506667  0.29920000  1.0
  O2-  O138  1  0.67520000  0.64173333  0.29920000  1.0
  O2-  O139  1  0.67520000  0.30840000  0.29920000  1.0
  O2-  O140  1  0.67520000  0.97506667  0.29920000  1.0
  O2-  O141  1  0.17520000  0.64173333  0.29920000  1.0
  O2-  O142  1  0.17520000  0.30840000  0.29920000  1.0
  O2-  O143  1  0.17520000  0.97506667  0.29920000  1.0
  O2-  O144  1  0.67520000  0.47506667  0.29920000  1.0
  O2-  O145  1  0.67520000  0.14173333  0.29920000  1.0
  O2-  O146  1  0.67520000  0.80840000  0.29920000  1.0
  O2-  O147  1  0.17520000  0.47506667  0.29920000  1.0
  O2-  O148  1  0.17520000  0.14173333  0.29920000  1.0
  O2-  O149  1  0.17520000  0.80840000  0.29920000  1.0
  O2-  O150  1  0.53725000  0.51241667  0.85100000  1.0
  O2-  O151  1  0.53725000  0.17908333  0.85100000  1.0
  O2-  O152  1  0.53725000  0.84575000  0.85100000  1.0
  O2-  O153  1  0.03725000  0.51241667  0.85100000  1.0
  O2-  O154  1  0.03725000  0.17908333  0.85100000  1.0
  O2-  O155  1  0.03725000  0.84575000  0.85100000  1.0
  O2-  O156  1  0.53725000  0.34575000  0.85100000  1.0
  O2-  O157  1  0.53725000  0.01241667  0.85100000  1.0
  O2-  O158  1  0.53725000  0.67908333  0.85100000  1.0
  O2-  O159  1  0.03725000  0.34575000  0.85100000  1.0
  O2-  O160  1  0.03725000  0.01241667  0.85100000  1.0
  O2-  O161  1  0.03725000  0.67908333  0.85100000  1.0
  O2-  O162  1  0.96275000  0.65425000  0.14900000  1.0
  O2-  O163  1  0.96275000  0.32091667  0.14900000  1.0
  O2-  O164  1  0.96275000  0.98758333  0.14900000  1.0
  O2-  O165  1  0.46275000  0.65425000  0.14900000  1.0
  O2-  O166  1  0.46275000  0.32091667  0.14900000  1.0
  O2-  O167  1  0.46275000  0.98758333  0.14900000  1.0
  O2-  O168  1  0.96275000  0.48758333  0.14900000  1.0
  O2-  O169  1  0.96275000  0.15425000  0.14900000  1.0
  O2-  O170  1  0.96275000  0.82091667  0.14900000  1.0
  O2-  O171  1  0.46275000  0.48758333  0.14900000  1.0
  O2-  O172  1  0.46275000  0.15425000  0.14900000  1.0
  O2-  O173  1  0.46275000  0.82091667  0.14900000  1.0
  O2-  O174  1  0.96750000  0.58333333  0.00000000  1.0
  O2-  O175  1  0.96750000  0.25000000  0.00000000  1.0
  O2-  O176  1  0.96750000  0.91666667  0.00000000  1.0
  O2-  O177  1  0.96750000  0.41666667  0.00000000  1.0
  O2-  O178  1  0.96750000  0.08333333  0.00000000  1.0
  O2-  O179  1  0.96750000  0.75000000  0.00000000  1.0
  O2-  O180  1  0.53250000  0.58333333  0.00000000  1.0
  O2-  O181  1  0.53250000  0.25000000  0.00000000  1.0
  O2-  O182  1  0.53250000  0.91666667  0.00000000  1.0
  O2-  O183  1  0.53250000  0.41666667  0.00000000  1.0
  O2-  O184  1  0.53250000  0.08333333  0.00000000  1.0
  O2-  O185  1  0.53250000  0.75000000  0.00000000  1.0
  O2-  O186  1  0.75000000  0.34416667  0.00000000  1.0
  O2-  O187  1  0.75000000  0.01083333  0.00000000  1.0
  O2-  O188  1  0.75000000  0.67750000  0.00000000  1.0
  O2-  O189  1  0.25000000  0.65583333  0.00000000  1.0
  O2-  O190  1  0.25000000  0.32250000  0.00000000  1.0
  O2-  O191  1  0.25000000  0.98916667  0.00000000  1.0
  O2-  O192  1  0.75000000  0.48916667  0.00000000  1.0
  O2-  O193  1  0.75000000  0.15583333  0.00000000  1.0
  O2-  O194  1  0.75000000  0.82250000  0.00000000  1.0
  O2-  O195  1  0.25000000  0.48916667  0.00000000  1.0
  O2-  O196  1  0.25000000  0.15583333  0.00000000  1.0
  O2-  O197  1  0.25000000  0.82250000  0.00000000  1.0
