# generated using pymatgen
data_Sr3Li4Nb6O20
_symmetry_space_group_name_H-M   'P 1'
_cell_length_a   23.71800000
_cell_length_b   7.90600000
_cell_length_c   13.31715153
_cell_angle_alpha   98.53523673
_cell_angle_beta   98.53523673
_cell_angle_gamma   90.00000000
_symmetry_Int_Tables_number   1
_chemical_formula_structural   Sr3Li4Nb6O20
_chemical_formula_sum   'Sr18 Li24 Nb36 O120'
_cell_volume   2441.53265228
_cell_formula_units_Z   6
loop_
 _symmetry_equiv_pos_site_id
 _symmetry_equiv_pos_as_xyz
  1  'x, y, z'
loop_
 _atom_type_symbol
 _atom_type_oxidation_number
  Sr2+  2.0
  Li+  1.0
  Nb5+  5.0
  O2-  -2.0
loop_
 _atom_site_type_symbol
 _atom_site_label
 _atom_site_symmetry_multiplicity
 _atom_site_fract_x
 _atom_site_fract_y
 _atom_site_fract_z
 _atom_site_occupancy
  Sr2+  Sr0  1  0.06997667  0.70993000  0.83972000  1.0
  Sr2+  Sr0  1  0.40331000  0.70993000  0.83972000  1.0
  Sr2+  Sr0  1  0.73664333  0.70993000  0.83972000  1.0
  Sr2+  Sr1  1  0.23664333  0.20993000  0.83972000  1.0
  Sr2+  Sr1  1  0.56997667  0.20993000  0.83972000  1.0
  Sr2+  Sr1  1  0.90331000  0.20993000  0.83972000  1.0
  Sr2+  Sr2  1  0.09669000  0.29007000  0.16028000  1.0
  Sr2+  Sr2  1  0.43002333  0.29007000  0.16028000  1.0
  Sr2+  Sr2  1  0.76335667  0.29007000  0.16028000  1.0
  Sr2+  Sr3  1  0.09669000  0.79007000  0.16028000  1.0
  Sr2+  Sr3  1  0.43002333  0.79007000  0.16028000  1.0
  Sr2+  Sr3  1  0.76335667  0.79007000  0.16028000  1.0
  Sr2+  Sr4  1  0.26335667  0.29007000  0.16028000  1.0
  Sr2+  Sr4  1  0.59669000  0.29007000  0.16028000  1.0
  Sr2+  Sr4  1  0.93002333  0.29007000  0.16028000  1.0
  Sr2+  Sr5  1  0.26335667  0.79007000  0.16028000  1.0
  Sr2+  Sr5  1  0.59669000  0.79007000  0.16028000  1.0
  Sr2+  Sr5  1  0.93002333  0.79007000  0.16028000  1.0
  Li+  Li1  1  0.12500000  0.12500000  0.50000000  1.0
  Li+  Li1  1  0.45833333  0.12500000  0.50000000  1.0
  Li+  Li1  1  0.79166667  0.12500000  0.50000000  1.0
  Li+  Li1  1  0.12500000  0.62500000  0.50000000  1.0
  Li+  Li1  1  0.45833333  0.62500000  0.50000000  1.0
  Li+  Li1  1  0.79166667  0.62500000  0.50000000  1.0
  Li+  Li1  1  0.29166667  0.12500000  0.50000000  1.0
  Li+  Li1  1  0.62500000  0.12500000  0.50000000  1.0
  Li+  Li1  1  0.95833333  0.12500000  0.50000000  1.0
  Li+  Li1  1  0.29166667  0.62500000  0.50000000  1.0
  Li+  Li1  1  0.62500000  0.62500000  0.50000000  1.0
  Li+  Li1  1  0.95833333  0.62500000  0.50000000  1.0
  Li+  Li1  1  0.04166667  0.37500000  0.50000000  1.0
  Li+  Li1  1  0.37500000  0.37500000  0.50000000  1.0
  Li+  Li1  1  0.70833333  0.37500000  0.50000000  1.0
  Li+  Li1  1  0.04166667  0.87500000  0.50000000  1.0
  Li+  Li1  1  0.37500000  0.87500000  0.50000000  1.0
  Li+  Li1  1  0.70833333  0.87500000  0.50000000  1.0
  Li+  Li1  1  0.20833333  0.37500000  0.50000000  1.0
  Li+  Li1  1  0.54166667  0.37500000  0.50000000  1.0
  Li+  Li1  1  0.87500000  0.37500000  0.50000000  1.0
  Li+  Li1  1  0.20833333  0.87500000  0.50000000  1.0
  Li+  Li1  1  0.54166667  0.87500000  0.50000000  1.0
  Li+  Li1  1  0.87500000  0.87500000  0.50000000  1.0
  Nb5+  Nb1  1  0.00000000  0.00000000  0.00000000  1.0
  Nb5+  Nb1  1  0.33333333  0.00000000  0.00000000  1.0
  Nb5+  Nb1  1  0.66666667  0.00000000  0.00000000  1.0
  Nb5+  Nb1  1  0.00000000  0.50000000  0.00000000  1.0
  Nb5+  Nb1  1  0.33333333  0.50000000  0.00000000  1.0
  Nb5+  Nb1  1  0.66666667  0.50000000  0.00000000  1.0
  Nb5+  Nb1  1  0.16666667  0.00000000  0.00000000  1.0
  Nb5+  Nb1  1  0.50000000  0.00000000  0.00000000  1.0
  Nb5+  Nb1  1  0.83333333  0.00000000  0.00000000  1.0
  Nb5+  Nb1  1  0.16666667  0.50000000  0.00000000  1.0
  Nb5+  Nb1  1  0.50000000  0.50000000  0.00000000  1.0
  Nb5+  Nb1  1  0.83333333  0.50000000  1.00000000  1.0
  Nb5+  Nb2  1  0.14043333  0.42130000  0.68520000  1.0
  Nb5+  Nb2  1  0.47376667  0.42130000  0.68520000  1.0
  Nb5+  Nb2  1  0.80710000  0.42130000  0.68520000  1.0
  Nb5+  Nb2  1  0.14043333  0.92130000  0.68520000  1.0
  Nb5+  Nb2  1  0.47376667  0.92130000  0.68520000  1.0
  Nb5+  Nb2  1  0.80710000  0.92130000  0.68520000  1.0
  Nb5+  Nb2  1  0.30710000  0.42130000  0.68520000  1.0
  Nb5+  Nb2  1  0.64043333  0.42130000  0.68520000  1.0
  Nb5+  Nb2  1  0.97376667  0.42130000  0.68520000  1.0
  Nb5+  Nb2  1  0.30710000  0.92130000  0.68520000  1.0
  Nb5+  Nb2  1  0.64043333  0.92130000  0.68520000  1.0
  Nb5+  Nb2  1  0.97376667  0.92130000  0.68520000  1.0
  Nb5+  Nb2  1  0.02623333  0.07870000  0.31480000  1.0
  Nb5+  Nb2  1  0.35956667  0.07870000  0.31480000  1.0
  Nb5+  Nb2  1  0.69290000  0.07870000  0.31480000  1.0
  Nb5+  Nb2  1  0.02623333  0.57870000  0.31480000  1.0
  Nb5+  Nb2  1  0.35956667  0.57870000  0.31480000  1.0
  Nb5+  Nb2  1  0.69290000  0.57870000  0.31480000  1.0
  Nb5+  Nb2  1  0.19290000  0.07870000  0.31480000  1.0
  Nb5+  Nb2  1  0.52623333  0.07870000  0.31480000  1.0
  Nb5+  Nb2  1  0.85956667  0.07870000  0.31480000  1.0
  Nb5+  Nb2  1  0.19290000  0.57870000  0.31480000  1.0
  Nb5+  Nb2  1  0.52623333  0.57870000  0.31480000  1.0
  Nb5+  Nb2  1  0.85956667  0.57870000  0.31480000  1.0
  O2-  O1  1  0.12870000  0.38610000  0.54440000  1.0
  O2-  O1  1  0.46203333  0.38610000  0.54440000  1.0
  O2-  O1  1  0.79536667  0.38610000  0.54440000  1.0
  O2-  O1  1  0.12870000  0.88610000  0.54440000  1.0
  O2-  O1  1  0.46203333  0.88610000  0.54440000  1.0
  O2-  O1  1  0.79536667  0.88610000  0.54440000  1.0
  O2-  O1  1  0.29536667  0.38610000  0.54440000  1.0
  O2-  O1  1  0.62870000  0.38610000  0.54440000  1.0
  O2-  O1  1  0.96203333  0.38610000  0.54440000  1.0
  O2-  O1  1  0.29536667  0.88610000  0.54440000  1.0
  O2-  O1  1  0.62870000  0.88610000  0.54440000  1.0
  O2-  O1  1  0.96203333  0.88610000  0.54440000  1.0
  O2-  O1  1  0.03796667  0.11390000  0.45560000  1.0
  O2-  O1  1  0.37130000  0.11390000  0.45560000  1.0
  O2-  O1  1  0.70463333  0.11390000  0.45560000  1.0
  O2-  O1  1  0.03796667  0.61390000  0.45560000  1.0
  O2-  O1  1  0.37130000  0.61390000  0.45560000  1.0
  O2-  O1  1  0.70463333  0.61390000  0.45560000  1.0
  O2-  O1  1  0.20463333  0.11390000  0.45560000  1.0
  O2-  O1  1  0.53796667  0.11390000  0.45560000  1.0
  O2-  O1  1  0.87130000  0.11390000  0.45560000  1.0
  O2-  O1  1  0.20463333  0.61390000  0.45560000  1.0
  O2-  O1  1  0.53796667  0.61390000  0.45560000  1.0
  O2-  O1  1  0.87130000  0.61390000  0.45560000  1.0
  O2-  O2  1  0.05840000  0.42520000  0.70080000  1.0
  O2-  O2  1  0.39173333  0.42520000  0.70080000  1.0
  O2-  O2  1  0.72506667  0.42520000  0.70080000  1.0
  O2-  O2  1  0.05840000  0.92520000  0.70080000  1.0
  O2-  O2  1  0.39173333  0.92520000  0.70080000  1.0
  O2-  O2  1  0.72506667  0.92520000  0.70080000  1.0
  O2-  O2  1  0.22506667  0.42520000  0.70080000  1.0
  O2-  O2  1  0.55840000  0.42520000  0.70080000  1.0
  O2-  O2  1  0.89173333  0.42520000  0.70080000  1.0
  O2-  O2  1  0.22506667  0.92520000  0.70080000  1.0
  O2-  O2  1  0.55840000  0.92520000  0.70080000  1.0
  O2-  O2  1  0.89173333  0.92520000  0.70080000  1.0
  O2-  O2  1  0.14173333  0.17520000  0.70080000  1.0
  O2-  O2  1  0.47506667  0.17520000  0.70080000  1.0
  O2-  O2  1  0.80840000  0.17520000  0.70080000  1.0
  O2-  O2  1  0.14173333  0.67520000  0.70080000  1.0
  O2-  O2  1  0.47506667  0.67520000  0.70080000  1.0
  O2-  O2  1  0.80840000  0.67520000  0.70080000  1.0
  O2-  O2  1  0.30840000  0.17520000  0.70080000  1.0
  O2-  O2  1  0.64173333  0.17520000  0.70080000  1.0
  O2-  O2  1  0.97506667  0.17520000  0.70080000  1.0
  O2-  O2  1  0.30840000  0.67520000  0.70080000  1.0
  O2-  O2  1  0.64173333  0.67520000  0.70080000  1.0
  O2-  O2  1  0.97506667  0.67520000  0.70080000  1.0
  O2-  O2  1  0.10826667  0.07480000  0.29920000  1.0
  O2-  O2  1  0.44160000  0.07480000  0.29920000  1.0
  O2-  O2  1  0.77493333  0.07480000  0.29920000  1.0
  O2-  O2  1  0.10826667  0.57480000  0.29920000  1.0
  O2-  O2  1  0.44160000  0.57480000  0.29920000  1.0
  O2-  O2  1  0.77493333  0.57480000  0.29920000  1.0
  O2-  O2  1  0.27493333  0.07480000  0.29920000  1.0
  O2-  O2  1  0.60826667  0.07480000  0.29920000  1.0
  O2-  O2  1  0.94160000  0.07480000  0.29920000  1.0
  O2-  O2  1  0.27493333  0.57480000  0.29920000  1.0
  O2-  O2  1  0.60826667  0.57480000  0.29920000  1.0
  O2-  O2  1  0.94160000  0.57480000  0.29920000  1.0
  O2-  O2  1  0.02493333  0.32480000  0.29920000  1.0
  O2-  O2  1  0.35826667  0.32480000  0.29920000  1.0
  O2-  O2  1  0.69160000  0.32480000  0.29920000  1.0
  O2-  O2  1  0.02493333  0.82480000  0.29920000  1.0
  O2-  O2  1  0.35826667  0.82480000  0.29920000  1.0
  O2-  O2  1  0.69160000  0.82480000  0.29920000  1.0
  O2-  O2  1  0.19160000  0.32480000  0.29920000  1.0
  O2-  O2  1  0.52493333  0.32480000  0.29920000  1.0
  O2-  O2  1  0.85826667  0.32480000  0.29920000  1.0
  O2-  O2  1  0.19160000  0.82480000  0.29920000  1.0
  O2-  O2  1  0.52493333  0.82480000  0.29920000  1.0
  O2-  O2  1  0.85826667  0.82480000  0.29920000  1.0
  O2-  O3  1  0.15425000  0.46275000  0.85100000  1.0
  O2-  O3  1  0.48758333  0.46275000  0.85100000  1.0
  O2-  O3  1  0.82091667  0.46275000  0.85100000  1.0
  O2-  O3  1  0.15425000  0.96275000  0.85100000  1.0
  O2-  O3  1  0.48758333  0.96275000  0.85100000  1.0
  O2-  O3  1  0.82091667  0.96275000  0.85100000  1.0
  O2-  O3  1  0.32091667  0.46275000  0.85100000  1.0
  O2-  O3  1  0.65425000  0.46275000  0.85100000  1.0
  O2-  O3  1  0.98758333  0.46275000  0.85100000  1.0
  O2-  O3  1  0.32091667  0.96275000  0.85100000  1.0
  O2-  O3  1  0.65425000  0.96275000  0.85100000  1.0
  O2-  O3  1  0.98758333  0.96275000  0.85100000  1.0
  O2-  O3  1  0.01241667  0.03725000  0.14900000  1.0
  O2-  O3  1  0.34575000  0.03725000  0.14900000  1.0
  O2-  O3  1  0.67908333  0.03725000  0.14900000  1.0
  O2-  O3  1  0.01241667  0.53725000  0.14900000  1.0
  O2-  O3  1  0.34575000  0.53725000  0.14900000  1.0
  O2-  O3  1  0.67908333  0.53725000  0.14900000  1.0
  O2-  O3  1  0.17908333  0.03725000  0.14900000  1.0
  O2-  O3  1  0.51241667  0.03725000  0.14900000  1.0
  O2-  O3  1  0.84575000  0.03725000  0.14900000  1.0
  O2-  O3  1  0.17908333  0.53725000  0.14900000  1.0
  O2-  O3  1  0.51241667  0.53725000  0.14900000  1.0
  O2-  O3  1  0.84575000  0.53725000  0.14900000  1.0
  O2-  O58  1  0.08333333  0.03250000  0.00000000  1.0
  O2-  O58  1  0.41666667  0.03250000  0.00000000  1.0
  O2-  O58  1  0.75000000  0.03250000  0.00000000  1.0
  O2-  O59  1  0.25000000  0.03250000  0.00000000  1.0
  O2-  O59  1  0.58333333  0.03250000  0.00000000  1.0
  O2-  O59  1  0.91666667  0.03250000  0.00000000  1.0
  O2-  O60  1  0.08333333  0.46750000  0.00000000  1.0
  O2-  O60  1  0.41666667  0.46750000  0.00000000  1.0
  O2-  O60  1  0.75000000  0.46750000  0.00000000  1.0
  O2-  O61  1  0.25000000  0.46750000  0.00000000  1.0
  O2-  O61  1  0.58333333  0.46750000  0.00000000  1.0
  O2-  O61  1  0.91666667  0.46750000  1.00000000  1.0
  O2-  O62  1  0.32250000  0.25000000  0.00000000  1.0
  O2-  O62  1  0.65583333  0.25000000  0.00000000  1.0
  O2-  O62  1  0.98916667  0.25000000  1.00000000  1.0
  O2-  O63  1  0.01083333  0.75000000  0.00000000  1.0
  O2-  O63  1  0.34416667  0.75000000  0.00000000  1.0
  O2-  O63  1  0.67750000  0.75000000  0.00000000  1.0
  O2-  O64  1  0.17750000  0.25000000  0.00000000  1.0
  O2-  O64  1  0.51083333  0.25000000  0.00000000  1.0
  O2-  O64  1  0.84416667  0.25000000  0.00000000  1.0
  O2-  O65  1  0.17750000  0.75000000  0.00000000  1.0
  O2-  O65  1  0.51083333  0.75000000  0.00000000  1.0
  O2-  O65  1  0.84416667  0.75000000  0.00000000  1.0
