# generated using pymatgen
data_Li16SnGe3S16
_symmetry_space_group_name_H-M   'P 1'
_cell_length_a   12.38806000
_cell_length_b   15.55840000
_cell_length_c   14.12720000
_cell_angle_alpha   90.00000000
_cell_angle_beta   90.00000000
_cell_angle_gamma   90.00000000
_symmetry_Int_Tables_number   1
_chemical_formula_structural   Li16SnGe3S16
_chemical_formula_sum   'Li64 Sn4 Ge12 S64'
_cell_volume   2722.85382141
_cell_formula_units_Z   4
loop_
 _symmetry_equiv_pos_site_id
 _symmetry_equiv_pos_as_xyz
  1  'x, y, z'
loop_
 _atom_type_symbol
 _atom_type_oxidation_number
  Li+  1.0
  Sn4+  4.0
  Ge4+  4.0
  S2-  -2.0
loop_
 _atom_site_type_symbol
 _atom_site_label
 _atom_site_symmetry_multiplicity
 _atom_site_fract_x
 _atom_site_fract_y
 _atom_site_fract_z
 _atom_site_occupancy
  Li+  Li1  1  0.31518500  0.12500000  0.59088000  1.0
  Li+  Li1  1  0.31518500  0.62500000  0.59088000  1.0
  Li+  Li1  1  0.81518500  0.12500000  0.59088000  1.0
  Li+  Li1  1  0.81518500  0.62500000  0.59088000  1.0
  Li+  Li1  1  0.18481500  0.37500000  0.40912000  1.0
  Li+  Li1  1  0.18481500  0.87500000  0.40912000  1.0
  Li+  Li1  1  0.68481500  0.37500000  0.40912000  1.0
  Li+  Li1  1  0.68481500  0.87500000  0.40912000  1.0
  Li+  Li1  1  0.06518500  0.37500000  0.90912000  1.0
  Li+  Li1  1  0.06518500  0.87500000  0.90912000  1.0
  Li+  Li1  1  0.56518500  0.37500000  0.90912000  1.0
  Li+  Li1  1  0.56518500  0.87500000  0.90912000  1.0
  Li+  Li1  1  0.43481500  0.12500000  0.09088000  1.0
  Li+  Li1  1  0.43481500  0.62500000  0.09088000  1.0
  Li+  Li1  1  0.93481500  0.12500000  0.09088000  1.0
  Li+  Li1  1  0.93481500  0.62500000  0.09088000  1.0
  Li+  Li2  1  0.34356000  0.00135000  0.82369000  1.0
  Li+  Li2  1  0.34356000  0.50135000  0.82369000  1.0
  Li+  Li2  1  0.84356000  0.00135000  0.82369000  1.0
  Li+  Li2  1  0.84356000  0.50135000  0.82369000  1.0
  Li+  Li2  1  0.15644000  0.25135000  0.17631000  1.0
  Li+  Li2  1  0.15644000  0.75135000  0.17631000  1.0
  Li+  Li2  1  0.65644000  0.25135000  0.17631000  1.0
  Li+  Li2  1  0.65644000  0.75135000  0.17631000  1.0
  Li+  Li2  1  0.09356000  0.49865000  0.67631000  1.0
  Li+  Li2  1  0.09356000  0.99865000  0.67631000  1.0
  Li+  Li2  1  0.59356000  0.49865000  0.67631000  1.0
  Li+  Li2  1  0.59356000  0.99865000  0.67631000  1.0
  Li+  Li2  1  0.09356000  0.25135000  0.67631000  1.0
  Li+  Li2  1  0.09356000  0.75135000  0.67631000  1.0
  Li+  Li2  1  0.59356000  0.25135000  0.67631000  1.0
  Li+  Li2  1  0.59356000  0.75135000  0.67631000  1.0
  Li+  Li2  1  0.34356000  0.24865000  0.82369000  1.0
  Li+  Li2  1  0.34356000  0.74865000  0.82369000  1.0
  Li+  Li2  1  0.84356000  0.24865000  0.82369000  1.0
  Li+  Li2  1  0.84356000  0.74865000  0.82369000  1.0
  Li+  Li2  1  0.15644000  0.49865000  0.17631000  1.0
  Li+  Li2  1  0.15644000  0.99865000  0.17631000  1.0
  Li+  Li2  1  0.65644000  0.49865000  0.17631000  1.0
  Li+  Li2  1  0.65644000  0.99865000  0.17631000  1.0
  Li+  Li2  1  0.40644000  0.24865000  0.32369000  1.0
  Li+  Li2  1  0.40644000  0.74865000  0.32369000  1.0
  Li+  Li2  1  0.90644000  0.24865000  0.32369000  1.0
  Li+  Li2  1  0.90644000  0.74865000  0.32369000  1.0
  Li+  Li2  1  0.40644000  0.00135000  0.32369000  1.0
  Li+  Li2  1  0.40644000  0.50135000  0.32369000  1.0
  Li+  Li2  1  0.90644000  0.00135000  0.32369000  1.0
  Li+  Li2  1  0.90644000  0.50135000  0.32369000  1.0
  Li+  Li24  1  0.23376500  0.25796500  0.00343000  1.0
  Li+  Li24  1  0.23376500  0.75796500  0.00343000  1.0
  Li+  Li25  1  0.01623500  0.25796500  0.50343000  1.0
  Li+  Li25  1  0.01623500  0.75796500  0.50343000  1.0
  Li+  Li26  1  0.51623500  0.25796500  0.50343000  1.0
  Li+  Li26  1  0.51623500  0.75796500  0.50343000  1.0
  Li+  Li27  1  0.76623500  0.24203500  0.99657000  1.0
  Li+  Li27  1  0.76623500  0.74203500  0.99657000  1.0
  Li+  Li28  1  0.23376500  0.49203500  0.00343000  1.0
  Li+  Li28  1  0.23376500  0.99203500  0.00343000  1.0
  Li+  Li29  1  0.73376500  0.49203500  0.00343000  1.0
  Li+  Li29  1  0.73376500  0.99203500  0.00343000  1.0
  Li+  Li30  1  0.48376500  0.00796500  0.49657000  1.0
  Li+  Li30  1  0.48376500  0.50796500  0.49657000  1.0
  Li+  Li31  1  0.98376500  0.00796500  0.49657000  1.0
  Li+  Li31  1  0.98376500  0.50796500  0.49657000  1.0
  Sn4+  Sn32  1  0.07394500  0.12500000  0.91050000  1.0
  Sn4+  Sn32  1  0.07394500  0.62500000  0.91050000  1.0
  Sn4+  Sn33  1  0.42605500  0.37500000  0.08950000  1.0
  Sn4+  Sn33  1  0.42605500  0.87500000  0.08950000  1.0
  Ge4+  Ge34  1  0.32394500  0.37500000  0.58950000  1.0
  Ge4+  Ge34  1  0.32394500  0.87500000  0.58950000  1.0
  Ge4+  Ge35  1  0.82394500  0.37500000  0.58950000  1.0
  Ge4+  Ge35  1  0.82394500  0.87500000  0.58950000  1.0
  Ge4+  Ge36  1  0.17605500  0.12500000  0.41050000  1.0
  Ge4+  Ge36  1  0.17605500  0.62500000  0.41050000  1.0
  Ge4+  Ge37  1  0.67605500  0.12500000  0.41050000  1.0
  Ge4+  Ge37  1  0.67605500  0.62500000  0.41050000  1.0
  Ge4+  Ge38  1  0.57394500  0.12500000  0.91050000  1.0
  Ge4+  Ge38  1  0.57394500  0.62500000  0.91050000  1.0
  Ge4+  Ge39  1  0.92605500  0.37500000  0.08950000  1.0
  Ge4+  Ge39  1  0.92605500  0.87500000  0.08950000  1.0
  S2-  S1  1  0.38965500  0.49371000  0.65716000  1.0
  S2-  S1  1  0.38965500  0.99371000  0.65716000  1.0
  S2-  S1  1  0.88965500  0.49371000  0.65716000  1.0
  S2-  S1  1  0.88965500  0.99371000  0.65716000  1.0
  S2-  S1  1  0.11034500  0.24371000  0.34284000  1.0
  S2-  S1  1  0.11034500  0.74371000  0.34284000  1.0
  S2-  S1  1  0.61034500  0.24371000  0.34284000  1.0
  S2-  S1  1  0.61034500  0.74371000  0.34284000  1.0
  S2-  S1  1  0.13965500  0.00629000  0.84284000  1.0
  S2-  S1  1  0.13965500  0.50629000  0.84284000  1.0
  S2-  S1  1  0.63965500  0.00629000  0.84284000  1.0
  S2-  S1  1  0.63965500  0.50629000  0.84284000  1.0
  S2-  S1  1  0.13965500  0.24371000  0.84284000  1.0
  S2-  S1  1  0.13965500  0.74371000  0.84284000  1.0
  S2-  S1  1  0.63965500  0.24371000  0.84284000  1.0
  S2-  S1  1  0.63965500  0.74371000  0.84284000  1.0
  S2-  S1  1  0.38965500  0.25629000  0.65716000  1.0
  S2-  S1  1  0.38965500  0.75629000  0.65716000  1.0
  S2-  S1  1  0.88965500  0.25629000  0.65716000  1.0
  S2-  S1  1  0.88965500  0.75629000  0.65716000  1.0
  S2-  S1  1  0.11034500  0.00629000  0.34284000  1.0
  S2-  S1  1  0.11034500  0.50629000  0.34284000  1.0
  S2-  S1  1  0.61034500  0.00629000  0.34284000  1.0
  S2-  S1  1  0.61034500  0.50629000  0.34284000  1.0
  S2-  S1  1  0.36034500  0.25629000  0.15716000  1.0
  S2-  S1  1  0.36034500  0.75629000  0.15716000  1.0
  S2-  S1  1  0.86034500  0.25629000  0.15716000  1.0
  S2-  S1  1  0.86034500  0.75629000  0.15716000  1.0
  S2-  S1  1  0.36034500  0.49371000  0.15716000  1.0
  S2-  S1  1  0.36034500  0.99371000  0.15716000  1.0
  S2-  S1  1  0.86034500  0.49371000  0.15716000  1.0
  S2-  S1  1  0.86034500  0.99371000  0.15716000  1.0
  S2-  S2  1  0.39357500  0.12500000  0.91443000  1.0
  S2-  S2  1  0.39357500  0.62500000  0.91443000  1.0
  S2-  S2  1  0.89357500  0.12500000  0.91443000  1.0
  S2-  S2  1  0.89357500  0.62500000  0.91443000  1.0
  S2-  S2  1  0.10642500  0.37500000  0.08557000  1.0
  S2-  S2  1  0.10642500  0.87500000  0.08557000  1.0
  S2-  S2  1  0.60642500  0.37500000  0.08557000  1.0
  S2-  S2  1  0.60642500  0.87500000  0.08557000  1.0
  S2-  S2  1  0.14357500  0.37500000  0.58557000  1.0
  S2-  S2  1  0.14357500  0.87500000  0.58557000  1.0
  S2-  S2  1  0.64357500  0.37500000  0.58557000  1.0
  S2-  S2  1  0.64357500  0.87500000  0.58557000  1.0
  S2-  S2  1  0.35642500  0.12500000  0.41443000  1.0
  S2-  S2  1  0.35642500  0.62500000  0.41443000  1.0
  S2-  S2  1  0.85642500  0.12500000  0.41443000  1.0
  S2-  S2  1  0.85642500  0.62500000  0.41443000  1.0
  S2-  S3  1  0.36637000  0.37500000  0.93854000  1.0
  S2-  S3  1  0.36637000  0.87500000  0.93854000  1.0
  S2-  S3  1  0.86637000  0.37500000  0.93854000  1.0
  S2-  S3  1  0.86637000  0.87500000  0.93854000  1.0
  S2-  S3  1  0.13363000  0.12500000  0.06146000  1.0
  S2-  S3  1  0.13363000  0.62500000  0.06146000  1.0
  S2-  S3  1  0.63363000  0.12500000  0.06146000  1.0
  S2-  S3  1  0.63363000  0.62500000  0.06146000  1.0
  S2-  S3  1  0.11637000  0.12500000  0.56146000  1.0
  S2-  S3  1  0.11637000  0.62500000  0.56146000  1.0
  S2-  S3  1  0.61637000  0.12500000  0.56146000  1.0
  S2-  S3  1  0.61637000  0.62500000  0.56146000  1.0
  S2-  S3  1  0.38363000  0.37500000  0.43854000  1.0
  S2-  S3  1  0.38363000  0.87500000  0.43854000  1.0
  S2-  S3  1  0.88363000  0.37500000  0.43854000  1.0
  S2-  S3  1  0.88363000  0.87500000  0.43854000  1.0
