# generated using pymatgen
data_Li3YCl6
_symmetry_space_group_name_H-M   'P 1'
_cell_length_a   12.09388200
_cell_length_b   11.20933700
_cell_length_c   22.41867400
_cell_angle_alpha   120.00000000
_cell_angle_beta   90.00000000
_cell_angle_gamma   90.00000000
_symmetry_Int_Tables_number   1
_chemical_formula_structural   Li3YCl6
_chemical_formula_sum   'Li36 Y12 Cl72'
_cell_volume   2632.00194825
_cell_formula_units_Z   12
loop_
 _symmetry_equiv_pos_site_id
 _symmetry_equiv_pos_as_xyz
  1  'x, y, z'
loop_
 _atom_type_symbol
 _atom_type_oxidation_number
  Li+  1.0
  Y3+  3.0
  Cl-  -1.0
loop_
 _atom_site_type_symbol
 _atom_site_label
 _atom_site_symmetry_multiplicity
 _atom_site_fract_x
 _atom_site_fract_y
 _atom_site_fract_z
 _atom_site_occupancy
  Li+  Li0  1  0.25000000  0.32694000  0.41347000  1.0
  Li+  Li1  1  0.25069571  0.32497633  0.91093583  1.0
  Li+  Li2  1  0.75000000  0.32694000  0.41347000  1.0
  Li+  Li3  1  0.75000000  0.32694000  0.91347000  1.0
  Li+  Li4  1  0.25000000  0.67306000  0.58653000  1.0
  Li+  Li5  1  0.25000000  0.67306000  0.08653000  1.0
  Li+  Li6  1  0.75000000  0.67306000  0.08653000  1.0
  Li+  Li7  1  0.24944239  0.00090221  0.58358119  1.0
  Li+  Li8  1  0.75000000  0.00000000  0.58653000  1.0
  Li+  Li9  1  0.75000000  0.00000000  0.08653000  1.0
  Li+  Li10  1  0.24922774  0.32619118  0.25282761  1.0
  Li+  Li11  1  0.25000000  0.32694000  0.75000000  1.0
  Li+  Li12  1  0.75000000  0.32694000  0.25000000  1.0
  Li+  Li13  1  0.75000000  0.32694000  0.75000000  1.0
  Li+  Li14  1  0.25000000  0.67306000  0.25000000  1.0
  Li+  Li15  1  0.24770450  0.67313090  0.75298152  1.0
  Li+  Li16  1  0.75000000  0.67306000  0.25000000  1.0
  Li+  Li17  1  0.75000000  0.67306000  0.75000000  1.0
  Li+  Li18  1  0.25000000  0.00000000  0.41347000  1.0
  Li+  Li19  1  0.25000000  0.00000000  0.91347000  1.0
  Li+  Li20  1  0.75000000  0.00000000  0.91347000  1.0
  Li+  Li21  1  0.00000000  0.34321000  0.42160500  1.0
  Li+  Li22  1  0.00000000  0.34321000  0.92160500  1.0
  Li+  Li23  1  0.49876371  0.34389868  0.92299073  1.0
  Li+  Li24  1  0.00000000  0.65679000  0.57839500  1.0
  Li+  Li25  1  0.00000000  0.65679000  0.07839500  1.0
  Li+  Li26  1  0.50000000  0.34321000  0.25000000  1.0
  Li+  Li27  1  0.50000000  0.34321000  0.75000000  1.0
  Li+  Li28  1  0.00113531  0.34182530  0.24903277  1.0
  Li+  Li29  1  0.00000000  0.34321000  0.75000000  1.0
  Li+  Li30  1  0.50000000  0.65679000  0.25000000  1.0
  Li+  Li31  1  0.50000000  0.65679000  0.75000000  1.0
  Li+  Li32  1  0.00000000  0.65679000  0.25000000  1.0
  Li+  Li33  1  0.00000000  0.65679000  0.75000000  1.0
  Li+  Li34  1  0.00000000  0.00000000  0.42160500  1.0
  Li+  Li35  1  0.00160078  0.99736309  0.92303076  1.0
  Y3+  Y36  1  0.50372393  0.66419881  0.41892500  1.0
  Y3+  Y37  1  0.99883000  0.66666667  0.41666667  1.0
  Y3+  Y38  1  0.50117000  0.33333333  0.58333333  1.0
  Y3+  Y39  1  0.50117000  0.33333333  0.08333333  1.0
  Y3+  Y40  1  0.99863258  0.00261047  0.74540827  1.0
  Y3+  Y41  1  0.99991669  0.99679769  0.25211237  1.0
  Y3+  Y42  1  0.49755106  0.99782403  0.74931981  1.0
  Y3+  Y43  1  0.50033812  0.00555861  0.25046536  1.0
  Y3+  Y44  1  0.24726000  0.66666667  0.91666667  1.0
  Y3+  Y45  1  0.74726000  0.66666667  0.91666667  1.0
  Y3+  Y46  1  0.75274000  0.33333333  0.58333333  1.0
  Y3+  Y47  1  0.75274000  0.33333333  0.08333333  1.0
  Cl-  Cl48  1  0.11773375  0.22636783  0.30677705  1.0
  Cl-  Cl49  1  0.11732500  0.22584000  0.80646000  1.0
  Cl-  Cl50  1  0.61360900  0.22608555  0.30508652  1.0
  Cl-  Cl51  1  0.61732500  0.22584000  0.80646000  1.0
  Cl-  Cl52  1  0.38267500  0.77416000  0.69354000  1.0
  Cl-  Cl53  1  0.38267500  0.77416000  0.19354000  1.0
  Cl-  Cl54  1  0.88267500  0.77416000  0.69354000  1.0
  Cl-  Cl55  1  0.88267500  0.77416000  0.19354000  1.0
  Cl-  Cl56  1  0.11732500  0.88708000  0.63708000  1.0
  Cl-  Cl57  1  0.11732500  0.88708000  0.13708000  1.0
  Cl-  Cl58  1  0.61732500  0.88708000  0.63708000  1.0
  Cl-  Cl59  1  0.61732500  0.88708000  0.13708000  1.0
  Cl-  Cl60  1  0.11754706  0.88974990  0.30377285  1.0
  Cl-  Cl61  1  0.11982470  0.88837102  0.80733214  1.0
  Cl-  Cl62  1  0.61902269  0.88747426  0.30361524  1.0
  Cl-  Cl63  1  0.61732500  0.88708000  0.80646000  1.0
  Cl-  Cl64  1  0.38267500  0.11292000  0.69354000  1.0
  Cl-  Cl65  1  0.38267500  0.11292000  0.19354000  1.0
  Cl-  Cl66  1  0.88267500  0.11292000  0.69354000  1.0
  Cl-  Cl67  1  0.88267500  0.11292000  0.19354000  1.0
  Cl-  Cl68  1  0.38126366  0.11545378  0.36121148  1.0
  Cl-  Cl69  1  0.38267500  0.11292000  0.86292000  1.0
  Cl-  Cl70  1  0.88888773  0.11781064  0.35885173  1.0
  Cl-  Cl71  1  0.88267500  0.11292000  0.86292000  1.0
  Cl-  Cl72  1  0.36846000  0.44124000  0.36031000  1.0
  Cl-  Cl73  1  0.36846000  0.44124000  0.86031000  1.0
  Cl-  Cl74  1  0.86846000  0.44124000  0.36031000  1.0
  Cl-  Cl75  1  0.86846000  0.44124000  0.86031000  1.0
  Cl-  Cl76  1  0.13154000  0.55876000  0.63969000  1.0
  Cl-  Cl77  1  0.13154000  0.55876000  0.13969000  1.0
  Cl-  Cl78  1  0.63154000  0.55876000  0.63969000  1.0
  Cl-  Cl79  1  0.63154000  0.55876000  0.13969000  1.0
  Cl-  Cl80  1  0.36846000  0.77938000  0.52938000  1.0
  Cl-  Cl81  1  0.36846000  0.77938000  0.02938000  1.0
  Cl-  Cl82  1  0.86846000  0.77938000  0.52938000  1.0
  Cl-  Cl83  1  0.86846000  0.77938000  0.02938000  1.0
  Cl-  Cl84  1  0.36846000  0.77938000  0.36031000  1.0
  Cl-  Cl85  1  0.36846000  0.77938000  0.86031000  1.0
  Cl-  Cl86  1  0.86846000  0.77938000  0.36031000  1.0
  Cl-  Cl87  1  0.86952619  0.77600915  0.85591508  1.0
  Cl-  Cl88  1  0.13154000  0.22062000  0.63969000  1.0
  Cl-  Cl89  1  0.13154000  0.22062000  0.13969000  1.0
  Cl-  Cl90  1  0.63154000  0.22062000  0.63969000  1.0
  Cl-  Cl91  1  0.62877088  0.22072024  0.14012347  1.0
  Cl-  Cl92  1  0.13154000  0.22062000  0.47062000  1.0
  Cl-  Cl93  1  0.13154000  0.22062000  0.97062000  1.0
  Cl-  Cl94  1  0.62835702  0.21939318  0.47056398  1.0
  Cl-  Cl95  1  0.63154000  0.22062000  0.97062000  1.0
  Cl-  Cl96  1  0.12027247  0.89422255  0.47312360  1.0
  Cl-  Cl97  1  0.12343000  0.89216000  0.97304000  1.0
  Cl-  Cl98  1  0.62687999  0.89404732  0.47116463  1.0
  Cl-  Cl99  1  0.62343000  0.89216000  0.97304000  1.0
  Cl-  Cl100  1  0.37657000  0.10784000  0.52696000  1.0
  Cl-  Cl101  1  0.37657000  0.10784000  0.02696000  1.0
  Cl-  Cl102  1  0.87792877  0.10837067  0.52585093  1.0
  Cl-  Cl103  1  0.87657000  0.10784000  0.02696000  1.0
  Cl-  Cl104  1  0.12343000  0.55392000  0.30392000  1.0
  Cl-  Cl105  1  0.12343000  0.55392000  0.80392000  1.0
  Cl-  Cl106  1  0.62438184  0.55576722  0.31014722  1.0
  Cl-  Cl107  1  0.62099185  0.55416969  0.80670241  1.0
  Cl-  Cl108  1  0.12343000  0.55392000  0.47304000  1.0
  Cl-  Cl109  1  0.12343000  0.55392000  0.97304000  1.0
  Cl-  Cl110  1  0.62618291  0.55347447  0.47038003  1.0
  Cl-  Cl111  1  0.62475844  0.55581064  0.97309896  1.0
  Cl-  Cl112  1  0.37657000  0.44608000  0.52696000  1.0
  Cl-  Cl113  1  0.37239246  0.44511930  0.03073387  1.0
  Cl-  Cl114  1  0.87657000  0.44608000  0.52696000  1.0
  Cl-  Cl115  1  0.87657000  0.44608000  0.02696000  1.0
  Cl-  Cl116  1  0.37657000  0.44608000  0.69608000  1.0
  Cl-  Cl117  1  0.37657000  0.44608000  0.19608000  1.0
  Cl-  Cl118  1  0.87657000  0.44608000  0.69608000  1.0
  Cl-  Cl119  1  0.87657000  0.44608000  0.19608000  1.0
