# generated using pymatgen
data_Li3YCl6
_symmetry_space_group_name_H-M   'P 1'
_cell_length_a   22.59687854
_cell_length_b   12.19001546
_cell_length_c   11.29843927
_cell_angle_alpha   90.00000000
_cell_angle_beta   60.00000000
_cell_angle_gamma   90.00000000
_symmetry_Int_Tables_number   1
_chemical_formula_structural   Li3YCl6
_chemical_formula_sum   'Li36 Y12 Cl72'
_cell_volume   2695.26700606
_cell_formula_units_Z   12
loop_
 _symmetry_equiv_pos_site_id
 _symmetry_equiv_pos_as_xyz
  1  'x, y, z'
loop_
 _atom_type_symbol
 _atom_type_oxidation_number
  Li+  1.0
  Y3+  3.0
  Cl-  -1.0
loop_
 _atom_site_type_symbol
 _atom_site_label
 _atom_site_symmetry_multiplicity
 _atom_site_fract_x
 _atom_site_fract_y
 _atom_site_fract_z
 _atom_site_occupancy
  Li+  Li0  1  0.66347000  0.41666667  0.67306000  1.0
  Li+  Li1  1  0.16347000  0.41666667  0.67306000  1.0
  Li+  Li2  1  0.66347000  0.91666667  0.67306000  1.0
  Li+  Li3  1  0.16347000  0.91666667  0.67306000  1.0
  Li+  Li4  1  0.83653000  0.41666667  0.32694000  1.0
  Li+  Li5  1  0.33653000  0.41666667  0.32694000  1.0
  Li+  Li6  1  0.33653000  0.91666667  0.32694000  1.0
  Li+  Li7  1  0.83653000  0.41666667  0.00000000  1.0
  Li+  Li8  1  0.83653000  0.91666667  0.00000000  1.0
  Li+  Li9  1  0.33653000  0.91666667  0.00000000  1.0
  Li+  Li10  1  0.50000000  0.41666667  0.67306000  1.0
  Li+  Li11  1  0.00000000  0.41666667  0.67306000  1.0
  Li+  Li12  1  0.50000000  0.91666667  0.67306000  1.0
  Li+  Li13  1  0.00000000  0.91666667  0.67306000  1.0
  Li+  Li14  1  0.50000000  0.41666667  0.32694000  1.0
  Li+  Li15  1  0.00000000  0.41666667  0.32694000  1.0
  Li+  Li16  1  0.50000000  0.91666667  0.32694000  1.0
  Li+  Li17  1  0.00000000  0.91666667  0.32694000  1.0
  Li+  Li18  1  0.66347000  0.41666667  0.00000000  1.0
  Li+  Li19  1  0.16347000  0.41666667  0.00000000  1.0
  Li+  Li20  1  0.16347000  0.91666667  0.00000000  1.0
  Li+  Li21  1  0.67160500  0.66666667  0.65679000  1.0
  Li+  Li22  1  0.17160500  0.66666667  0.65679000  1.0
  Li+  Li23  1  0.17160500  0.16666667  0.65679000  1.0
  Li+  Li24  1  0.82839500  0.66666667  0.34321000  1.0
  Li+  Li25  1  0.32839500  0.66666667  0.34321000  1.0
  Li+  Li26  1  0.50000000  0.16666667  0.65679000  1.0
  Li+  Li27  1  0.00000000  0.16666667  0.65679000  1.0
  Li+  Li28  1  0.50000000  0.66666667  0.65679000  1.0
  Li+  Li29  1  0.00000000  0.66666667  0.65679000  1.0
  Li+  Li30  1  0.50000000  0.16666667  0.34321000  1.0
  Li+  Li31  1  0.00000000  0.16666667  0.34321000  1.0
  Li+  Li32  1  0.50000000  0.66666667  0.34321000  1.0
  Li+  Li33  1  0.00000000  0.66666667  0.34321000  1.0
  Li+  Li34  1  0.67160500  0.66666667  0.00000000  1.0
  Li+  Li35  1  0.17160500  0.66666667  0.00000000  1.0
  Y3+  Y36  1  0.66666667  0.16783667  0.33333333  1.0
  Y3+  Y37  1  0.66666667  0.66783667  0.33333333  1.0
  Y3+  Y38  1  0.83333333  0.16549667  0.66666667  1.0
  Y3+  Y39  1  0.33333333  0.16549667  0.66666667  1.0
  Y3+  Y40  1  0.00000000  0.66666667  0.00000000  1.0
  Y3+  Y41  1  0.50000000  0.66666667  0.00000000  1.0
  Y3+  Y42  1  0.00000000  0.16666667  0.00000000  1.0
  Y3+  Y43  1  0.50000000  0.16666667  0.00000000  1.0
  Y3+  Y44  1  0.16666667  0.41940667  0.33333333  1.0
  Y3+  Y45  1  0.16666667  0.91940667  0.33333333  1.0
  Y3+  Y46  1  0.83333333  0.91392667  0.66666667  1.0
  Y3+  Y47  1  0.33333333  0.91392667  0.66666667  1.0
  Cl-  Cl48  1  0.55646000  0.54934167  0.77416000  1.0
  Cl-  Cl49  1  0.05646000  0.54934167  0.77416000  1.0
  Cl-  Cl50  1  0.55646000  0.04934167  0.77416000  1.0
  Cl-  Cl51  1  0.05646000  0.04934167  0.77416000  1.0
  Cl-  Cl52  1  0.94354000  0.28399167  0.22584000  1.0
  Cl-  Cl53  1  0.44354000  0.28399167  0.22584000  1.0
  Cl-  Cl54  1  0.94354000  0.78399167  0.22584000  1.0
  Cl-  Cl55  1  0.44354000  0.78399167  0.22584000  1.0
  Cl-  Cl56  1  0.88708000  0.54934167  0.11292000  1.0
  Cl-  Cl57  1  0.38708000  0.54934167  0.11292000  1.0
  Cl-  Cl58  1  0.88708000  0.04934167  0.11292000  1.0
  Cl-  Cl59  1  0.38708000  0.04934167  0.11292000  1.0
  Cl-  Cl60  1  0.55646000  0.54934167  0.11292000  1.0
  Cl-  Cl61  1  0.05646000  0.54934167  0.11292000  1.0
  Cl-  Cl62  1  0.55646000  0.04934167  0.11292000  1.0
  Cl-  Cl63  1  0.05646000  0.04934167  0.11292000  1.0
  Cl-  Cl64  1  0.94354000  0.28399167  0.88708000  1.0
  Cl-  Cl65  1  0.44354000  0.28399167  0.88708000  1.0
  Cl-  Cl66  1  0.94354000  0.78399167  0.88708000  1.0
  Cl-  Cl67  1  0.44354000  0.78399167  0.88708000  1.0
  Cl-  Cl68  1  0.61292000  0.28399167  0.88708000  1.0
  Cl-  Cl69  1  0.11292000  0.28399167  0.88708000  1.0
  Cl-  Cl70  1  0.61292000  0.78399167  0.88708000  1.0
  Cl-  Cl71  1  0.11292000  0.78399167  0.88708000  1.0
  Cl-  Cl72  1  0.61031000  0.29820667  0.55876000  1.0
  Cl-  Cl73  1  0.11031000  0.29820667  0.55876000  1.0
  Cl-  Cl74  1  0.61031000  0.79820667  0.55876000  1.0
  Cl-  Cl75  1  0.11031000  0.79820667  0.55876000  1.0
  Cl-  Cl76  1  0.88969000  0.53512667  0.44124000  1.0
  Cl-  Cl77  1  0.38969000  0.53512667  0.44124000  1.0
  Cl-  Cl78  1  0.88969000  0.03512667  0.44124000  1.0
  Cl-  Cl79  1  0.38969000  0.03512667  0.44124000  1.0
  Cl-  Cl80  1  0.77938000  0.29820667  0.22062000  1.0
  Cl-  Cl81  1  0.27938000  0.29820667  0.22062000  1.0
  Cl-  Cl82  1  0.77938000  0.79820667  0.22062000  1.0
  Cl-  Cl83  1  0.27938000  0.79820667  0.22062000  1.0
  Cl-  Cl84  1  0.61031000  0.29820667  0.22062000  1.0
  Cl-  Cl85  1  0.11031000  0.29820667  0.22062000  1.0
  Cl-  Cl86  1  0.61031000  0.79820667  0.22062000  1.0
  Cl-  Cl87  1  0.11031000  0.79820667  0.22062000  1.0
  Cl-  Cl88  1  0.88969000  0.53512667  0.77938000  1.0
  Cl-  Cl89  1  0.38969000  0.53512667  0.77938000  1.0
  Cl-  Cl90  1  0.88969000  0.03512667  0.77938000  1.0
  Cl-  Cl91  1  0.38969000  0.03512667  0.77938000  1.0
  Cl-  Cl92  1  0.72062000  0.53512667  0.77938000  1.0
  Cl-  Cl93  1  0.22062000  0.53512667  0.77938000  1.0
  Cl-  Cl94  1  0.72062000  0.03512667  0.77938000  1.0
  Cl-  Cl95  1  0.22062000  0.03512667  0.77938000  1.0
  Cl-  Cl96  1  0.72304000  0.54323667  0.10784000  1.0
  Cl-  Cl97  1  0.22304000  0.54323667  0.10784000  1.0
  Cl-  Cl98  1  0.72304000  0.04323667  0.10784000  1.0
  Cl-  Cl99  1  0.22304000  0.04323667  0.10784000  1.0
  Cl-  Cl100  1  0.77696000  0.29009667  0.89216000  1.0
  Cl-  Cl101  1  0.27696000  0.29009667  0.89216000  1.0
  Cl-  Cl102  1  0.77696000  0.79009667  0.89216000  1.0
  Cl-  Cl103  1  0.27696000  0.79009667  0.89216000  1.0
  Cl-  Cl104  1  0.55392000  0.54323667  0.44608000  1.0
  Cl-  Cl105  1  0.05392000  0.54323667  0.44608000  1.0
  Cl-  Cl106  1  0.55392000  0.04323667  0.44608000  1.0
  Cl-  Cl107  1  0.05392000  0.04323667  0.44608000  1.0
  Cl-  Cl108  1  0.72304000  0.54323667  0.44608000  1.0
  Cl-  Cl109  1  0.22304000  0.54323667  0.44608000  1.0
  Cl-  Cl110  1  0.72304000  0.04323667  0.44608000  1.0
  Cl-  Cl111  1  0.22304000  0.04323667  0.44608000  1.0
  Cl-  Cl112  1  0.77696000  0.29009667  0.55392000  1.0
  Cl-  Cl113  1  0.27696000  0.29009667  0.55392000  1.0
  Cl-  Cl114  1  0.77696000  0.79009667  0.55392000  1.0
  Cl-  Cl115  1  0.27696000  0.79009667  0.55392000  1.0
  Cl-  Cl116  1  0.94608000  0.29009667  0.55392000  1.0
  Cl-  Cl117  1  0.44608000  0.29009667  0.55392000  1.0
  Cl-  Cl118  1  0.94608000  0.79009667  0.55392000  1.0
  Cl-  Cl119  1  0.44608000  0.79009667  0.55392000  1.0
