# generated using pymatgen
data_Li3YCl6
_symmetry_space_group_name_H-M   'P 1'
_cell_length_a   12.09388200
_cell_length_b   22.41867400
_cell_length_c   11.20933700
_cell_angle_alpha   120.00000000
_cell_angle_beta   90.00000000
_cell_angle_gamma   90.00000000
_symmetry_Int_Tables_number   1
_chemical_formula_structural   Li3YCl6
_chemical_formula_sum   'Li36 Y12 Cl72'
_cell_volume   2632.00194825
_cell_formula_units_Z   12
loop_
 _symmetry_equiv_pos_site_id
 _symmetry_equiv_pos_as_xyz
  1  'x, y, z'
loop_
 _atom_type_symbol
 _atom_type_oxidation_number
  Li+  1.0
  Y3+  3.0
  Cl-  -1.0
loop_
 _atom_site_type_symbol
 _atom_site_label
 _atom_site_symmetry_multiplicity
 _atom_site_fract_x
 _atom_site_fract_y
 _atom_site_fract_z
 _atom_site_occupancy
  Li+  Li0  1  0.25000000  0.33653000  0.67306000  1.0
  Li+  Li1  1  0.25000000  0.83653000  0.67306000  1.0
  Li+  Li2  1  0.75000000  0.33653000  0.67306000  1.0
  Li+  Li3  1  0.75000000  0.83653000  0.67306000  1.0
  Li+  Li4  1  0.25000000  0.16347000  0.32694000  1.0
  Li+  Li5  1  0.25000000  0.66347000  0.32694000  1.0
  Li+  Li6  1  0.75000000  0.66347000  0.32694000  1.0
  Li+  Li7  1  0.25000000  0.16347000  0.00000000  1.0
  Li+  Li8  1  0.75000000  0.16347000  0.00000000  1.0
  Li+  Li9  1  0.75000000  0.66347000  1.00000000  1.0
  Li+  Li10  1  0.25000000  0.50000000  0.67306000  1.0
  Li+  Li11  1  0.25000000  0.00000000  0.67306000  1.0
  Li+  Li12  1  0.75000000  0.50000000  0.67306000  1.0
  Li+  Li13  1  0.75000000  0.00000000  0.67306000  1.0
  Li+  Li14  1  0.25000000  0.50000000  0.32694000  1.0
  Li+  Li15  1  0.25000000  0.00000000  0.32694000  1.0
  Li+  Li16  1  0.75000000  0.50000000  0.32694000  1.0
  Li+  Li17  1  0.75000000  0.00000000  0.32694000  1.0
  Li+  Li18  1  0.25000000  0.33653000  0.00000000  1.0
  Li+  Li19  1  0.25000000  0.83653000  0.00000000  1.0
  Li+  Li20  1  0.75000000  0.83653000  1.00000000  1.0
  Li+  Li21  1  0.00000000  0.32839500  0.65679000  1.0
  Li+  Li22  1  0.00000000  0.82839500  0.65679000  1.0
  Li+  Li23  1  0.50000000  0.82839500  0.65679000  1.0
  Li+  Li24  1  0.00000000  0.17160500  0.34321000  1.0
  Li+  Li25  1  0.00000000  0.67160500  0.34321000  1.0
  Li+  Li26  1  0.50000000  0.50000000  0.65679000  1.0
  Li+  Li27  1  0.50000000  0.00000000  0.65679000  1.0
  Li+  Li28  1  0.00000000  0.50000000  0.65679000  1.0
  Li+  Li29  1  0.00000000  0.00000000  0.65679000  1.0
  Li+  Li30  1  0.50000000  0.50000000  0.34321000  1.0
  Li+  Li31  1  0.50000000  0.00000000  0.34321000  1.0
  Li+  Li32  1  0.00000000  0.50000000  0.34321000  1.0
  Li+  Li33  1  0.00000000  0.00000000  0.34321000  1.0
  Li+  Li34  1  0.00000000  0.32839500  0.00000000  1.0
  Li+  Li35  1  0.00000000  0.82839500  1.00000000  1.0
  Y3+  Y36  1  0.49883000  0.33333333  0.33333333  1.0
  Y3+  Y37  1  0.99883000  0.33333333  0.33333333  1.0
  Y3+  Y38  1  0.50117000  0.16666667  0.66666667  1.0
  Y3+  Y39  1  0.50117000  0.66666667  0.66666667  1.0
  Y3+  y1a  1  0.00000000  0.00000000  0.00000000  1.0
  Y3+  y1a  1  0.00000000  0.50000000  0.00000000  1.0
  Y3+  y1a  1  0.50000000  0.00000000  0.00000000  1.0
  Y3+  y1a  1  0.50000000  0.50000000  1.00000000  1.0
  Y3+  Y44  1  0.24726000  0.83333333  0.33333333  1.0
  Y3+  Y45  1  0.74726000  0.83333333  0.33333333  1.0
  Y3+  Y46  1  0.75274000  0.16666667  0.66666667  1.0
  Y3+  Y47  1  0.75274000  0.66666667  0.66666667  1.0
  Cl-  Cl6i  1  0.11732500  0.44354000  0.77416000  1.0
  Cl-  Cl6i  1  0.11732500  0.94354000  0.77416000  1.0
  Cl-  Cl6i  1  0.61732500  0.44354000  0.77416000  1.0
  Cl-  Cl6i  1  0.61732500  0.94354000  0.77416000  1.0
  Cl-  Cl6i  1  0.38267500  0.05646000  0.22584000  1.0
  Cl-  Cl6i  1  0.38267500  0.55646000  0.22584000  1.0
  Cl-  Cl6i  1  0.88267500  0.05646000  0.22584000  1.0
  Cl-  Cl6i  1  0.88267500  0.55646000  0.22584000  1.0
  Cl-  Cl6i  1  0.11732500  0.11292000  0.11292000  1.0
  Cl-  Cl6i  1  0.11732500  0.61292000  0.11292000  1.0
  Cl-  Cl6i  1  0.61732500  0.11292000  0.11292000  1.0
  Cl-  Cl6i  1  0.61732500  0.61292000  0.11292000  1.0
  Cl-  Cl6i  1  0.11732500  0.44354000  0.11292000  1.0
  Cl-  Cl6i  1  0.11732500  0.94354000  0.11292000  1.0
  Cl-  Cl6i  1  0.61732500  0.44354000  0.11292000  1.0
  Cl-  Cl6i  1  0.61732500  0.94354000  0.11292000  1.0
  Cl-  Cl6i  1  0.38267500  0.05646000  0.88708000  1.0
  Cl-  Cl6i  1  0.38267500  0.55646000  0.88708000  1.0
  Cl-  Cl6i  1  0.88267500  0.05646000  0.88708000  1.0
  Cl-  Cl6i  1  0.88267500  0.55646000  0.88708000  1.0
  Cl-  Cl6i  1  0.38267500  0.38708000  0.88708000  1.0
  Cl-  Cl6i  1  0.38267500  0.88708000  0.88708000  1.0
  Cl-  Cl6i  1  0.88267500  0.38708000  0.88708000  1.0
  Cl-  Cl6i  1  0.88267500  0.88708000  0.88708000  1.0
  Cl-  Cl6i  1  0.36846000  0.38969000  0.55876000  1.0
  Cl-  Cl6i  1  0.36846000  0.88969000  0.55876000  1.0
  Cl-  Cl6i  1  0.86846000  0.38969000  0.55876000  1.0
  Cl-  Cl6i  1  0.86846000  0.88969000  0.55876000  1.0
  Cl-  Cl6i  1  0.13154000  0.11031000  0.44124000  1.0
  Cl-  Cl6i  1  0.13154000  0.61031000  0.44124000  1.0
  Cl-  Cl6i  1  0.63154000  0.11031000  0.44124000  1.0
  Cl-  Cl6i  1  0.63154000  0.61031000  0.44124000  1.0
  Cl-  Cl6i  1  0.36846000  0.22062000  0.22062000  1.0
  Cl-  Cl6i  1  0.36846000  0.72062000  0.22062000  1.0
  Cl-  Cl6i  1  0.86846000  0.22062000  0.22062000  1.0
  Cl-  Cl6i  1  0.86846000  0.72062000  0.22062000  1.0
  Cl-  Cl6i  1  0.36846000  0.38969000  0.22062000  1.0
  Cl-  Cl6i  1  0.36846000  0.88969000  0.22062000  1.0
  Cl-  Cl6i  1  0.86846000  0.38969000  0.22062000  1.0
  Cl-  Cl6i  1  0.86846000  0.88969000  0.22062000  1.0
  Cl-  Cl6i  1  0.13154000  0.11031000  0.77938000  1.0
  Cl-  Cl6i  1  0.13154000  0.61031000  0.77938000  1.0
  Cl-  Cl6i  1  0.63154000  0.11031000  0.77938000  1.0
  Cl-  Cl6i  1  0.63154000  0.61031000  0.77938000  1.0
  Cl-  Cl6i  1  0.13154000  0.27938000  0.77938000  1.0
  Cl-  Cl6i  1  0.13154000  0.77938000  0.77938000  1.0
  Cl-  Cl6i  1  0.63154000  0.27938000  0.77938000  1.0
  Cl-  Cl6i  1  0.63154000  0.77938000  0.77938000  1.0
  Cl-  Cl6i  1  0.12343000  0.27696000  0.10784000  1.0
  Cl-  Cl6i  1  0.12343000  0.77696000  0.10784000  1.0
  Cl-  Cl6i  1  0.62343000  0.27696000  0.10784000  1.0
  Cl-  Cl6i  1  0.62343000  0.77696000  0.10784000  1.0
  Cl-  Cl6i  1  0.37657000  0.22304000  0.89216000  1.0
  Cl-  Cl6i  1  0.37657000  0.72304000  0.89216000  1.0
  Cl-  Cl6i  1  0.87657000  0.22304000  0.89216000  1.0
  Cl-  Cl6i  1  0.87657000  0.72304000  0.89216000  1.0
  Cl-  Cl6i  1  0.12343000  0.44608000  0.44608000  1.0
  Cl-  Cl6i  1  0.12343000  0.94608000  0.44608000  1.0
  Cl-  Cl6i  1  0.62343000  0.44608000  0.44608000  1.0
  Cl-  Cl6i  1  0.62343000  0.94608000  0.44608000  1.0
  Cl-  Cl6i  1  0.12343000  0.27696000  0.44608000  1.0
  Cl-  Cl6i  1  0.12343000  0.77696000  0.44608000  1.0
  Cl-  Cl6i  1  0.62343000  0.27696000  0.44608000  1.0
  Cl-  Cl6i  1  0.62343000  0.77696000  0.44608000  1.0
  Cl-  Cl6i  1  0.37657000  0.22304000  0.55392000  1.0
  Cl-  Cl6i  1  0.37657000  0.72304000  0.55392000  1.0
  Cl-  Cl6i  1  0.87657000  0.22304000  0.55392000  1.0
  Cl-  Cl6i  1  0.87657000  0.72304000  0.55392000  1.0
  Cl-  Cl6i  1  0.37657000  0.05392000  0.55392000  1.0
  Cl-  Cl6i  1  0.37657000  0.55392000  0.55392000  1.0
  Cl-  Cl6i  1  0.87657000  0.05392000  0.55392000  1.0
  Cl-  Cl6i  1  0.87657000  0.55392000  0.55392000  1.0
