# generated using pymatgen
data_Li32Si2Sb3(S5I)5
_symmetry_space_group_name_H-M   'P 1'
_cell_length_a   36.69247798
_cell_length_b   14.67699119
_cell_length_c   7.33849560
_cell_angle_alpha   60.00000000
_cell_angle_beta   120.00000000
_cell_angle_gamma   120.00000000
_symmetry_Int_Tables_number   1
_chemical_formula_structural   Li32Si2Sb3(S5I)5
_chemical_formula_sum   'Li64 Si4 Sb6 S50 I10'
_cell_volume   2794.51288338
_cell_formula_units_Z   2
loop_
 _symmetry_equiv_pos_site_id
 _symmetry_equiv_pos_as_xyz
  1  'x, y, z'
loop_
 _atom_type_symbol
 _atom_type_oxidation_number
  Li+  1.0
  Si4+  4.0
  Sb5+  5.0
  S2-  -2.0
  I-  -1.0
loop_
 _atom_site_type_symbol
 _atom_site_label
 _atom_site_symmetry_multiplicity
 _atom_site_fract_x
 _atom_site_fract_y
 _atom_site_fract_z
 _atom_site_occupancy
  Li+  Li0  1  0.19562000  0.51095000  0.29430000  1.0
  Li+  Li1  1  0.19562000  0.01095000  0.29430000  1.0
  Li+  Li2  1  0.39562000  0.01095000  0.29430000  1.0
  Li+  Li3  1  0.59562000  0.51095000  0.29430000  1.0
  Li+  Li4  1  0.59562000  0.01095000  0.29430000  1.0
  Li+  Li5  1  0.79562000  0.01095000  0.29430000  1.0
  Li+  Li6  1  0.99562000  0.51095000  0.29430000  1.0
  Li+  Li7  1  0.31762000  0.77215000  0.77190000  1.0
  Li+  Li8  1  0.31762000  0.27215000  0.77190000  1.0
  Li+  Li9  1  0.71762000  0.77215000  0.77190000  1.0
  Li+  Li10  1  0.71762000  0.27215000  0.77190000  1.0
  Li+  Li11  1  0.91489028  0.76959653  0.77344674  1.0
  Li+  Li12  1  0.39562000  0.01095000  0.16190000  1.0
  Li+  Li13  1  0.59562000  0.01095000  0.16190000  1.0
  Li+  Li14  1  0.79805937  0.50559386  0.15943359  1.0
  Li+  Li15  1  0.99562000  0.51095000  0.16190000  1.0
  Li+  Li16  1  0.09114000  0.70595000  0.77190000  1.0
  Li+  Li17  1  0.09114000  0.20595000  0.77190000  1.0
  Li+  Li18  1  0.29114000  0.70595000  0.77190000  1.0
  Li+  Li19  1  0.29499548  0.20803400  0.76690818  1.0
  Li+  Li20  1  0.48805434  0.20763217  0.76643456  1.0
  Li+  Li21  1  0.69114000  0.70595000  0.77190000  1.0
  Li+  Li22  1  0.89114000  0.70595000  0.77190000  1.0
  Li+  Li23  1  0.89114000  0.20595000  0.77190000  1.0
  Li+  Li24  1  0.09114000  0.01095000  0.77190000  1.0
  Li+  Li25  1  0.29114000  0.51095000  0.77190000  1.0
  Li+  Li26  1  0.49114000  0.51095000  0.77190000  1.0
  Li+  Li27  1  0.69114000  0.51095000  0.77190000  1.0
  Li+  Li28  1  0.69009013  0.01294441  0.77169450  1.0
  Li+  Li29  1  0.89114000  0.51095000  0.77190000  1.0
  Li+  Li30  1  0.89114000  0.01095000  0.77190000  1.0
  Li+  Li31  1  0.39562000  0.70595000  0.29430000  1.0
  Li+  Li32  1  0.59562000  0.70595000  0.29430000  1.0
  Li+  Li33  1  0.79562000  0.20595000  0.29430000  1.0
  Li+  Li34  1  0.11656320  0.50947507  0.77226650  1.0
  Li+  Li35  1  0.11762000  0.01095000  0.77190000  1.0
  Li+  Li36  1  0.31910202  0.50773590  0.77341856  1.0
  Li+  Li37  1  0.31762000  0.01095000  0.77190000  1.0
  Li+  Li38  1  0.51594245  0.00930978  0.77134997  1.0
  Li+  Li39  1  0.71762000  0.51095000  0.77190000  1.0
  Li+  Li40  1  0.71762000  0.01095000  0.77190000  1.0
  Li+  Li41  1  0.19562000  0.77215000  0.16190000  1.0
  Li+  Li42  1  0.39729599  0.77256007  0.16262475  1.0
  Li+  Li43  1  0.59562000  0.27215000  0.16190000  1.0
  Li+  Li44  1  0.79562000  0.77215000  0.16190000  1.0
  Li+  Li45  1  0.99620180  0.76750061  0.16258782  1.0
  Li+  Li46  1  0.19562000  0.77215000  0.77190000  1.0
  Li+  Li47  1  0.19562000  0.27215000  0.77190000  1.0
  Li+  Li48  1  0.39679983  0.26813062  0.77064932  1.0
  Li+  Li49  1  0.59562000  0.77215000  0.77190000  1.0
  Li+  Li50  1  0.59562000  0.27215000  0.77190000  1.0
  Li+  Li51  1  0.09114000  0.01095000  0.16190000  1.0
  Li+  Li52  1  0.29114000  0.51095000  0.16190000  1.0
  Li+  Li53  1  0.49114000  0.01095000  0.16190000  1.0
  Li+  Li54  1  0.69190274  0.01139998  0.16129330  1.0
  Li+  Li55  1  0.19562000  0.20595000  0.77190000  1.0
  Li+  Li56  1  0.79562000  0.20595000  0.77190000  1.0
  Li+  Li57  1  0.99562000  0.70595000  0.77190000  1.0
  Li+  Li58  1  0.99562000  0.20595000  0.77190000  1.0
  Li+  Li59  1  0.11762000  0.51095000  0.29430000  1.0
  Li+  Li60  1  0.31762000  0.51095000  0.29430000  1.0
  Li+  Li61  1  0.31762000  0.01095000  0.29430000  1.0
  Li+  Li62  1  0.51987469  0.50701393  0.29033358  1.0
  Li+  Li63  1  0.91762000  0.51095000  0.29430000  1.0
  Si4+  Si64  1  0.10000000  0.75000000  0.25000000  1.0
  Si4+  Si65  1  0.30393101  0.24847678  0.24854686  1.0
  Si4+  Si66  1  0.50000000  0.25000000  0.25000000  1.0
  Si4+  Si67  1  0.70228255  0.24372535  0.24776347  1.0
  Sb5+  Sb68  1  0.10000000  0.25000000  0.25000000  1.0
  Sb5+  Sb69  1  0.29932478  0.75084108  0.25506577  1.0
  Sb5+  Sb70  1  0.50043053  0.74740035  0.25139176  1.0
  Sb5+  Sb71  1  0.69806184  0.74999339  0.24652992  1.0
  Sb5+  Sb72  1  0.90000000  0.75000000  0.25000000  1.0
  Sb5+  Sb73  1  0.90000000  0.25000000  0.25000000  1.0
  S2-  S74  1  0.15000000  0.62500000  0.00000000  1.0
  S2-  S75  1  0.15000000  0.12500000  0.00000000  1.0
  S2-  S76  1  0.35000000  0.62500000  0.00000000  1.0
  S2-  S77  1  0.35121517  0.12401289  0.99728369  1.0
  S2-  S78  1  0.55000000  0.62500000  0.00000000  1.0
  S2-  S79  1  0.55000000  0.12500000  0.00000000  1.0
  S2-  S80  1  0.75241264  0.62519814  0.00064734  1.0
  S2-  S81  1  0.75000000  0.12500000  0.00000000  1.0
  S2-  S82  1  0.95000000  0.62500000  0.00000000  1.0
  S2-  S83  1  0.94934975  0.12716190  0.99877712  1.0
  S2-  S84  1  0.17333381  0.81146991  0.37407005  1.0
  S2-  S85  1  0.17535400  0.31279500  0.37559000  1.0
  S2-  S86  1  0.37535400  0.81279500  0.37559000  1.0
  S2-  S87  1  0.37535400  0.31279500  0.37559000  1.0
  S2-  S88  1  0.57535400  0.81279500  0.37559000  1.0
  S2-  S89  1  0.57535400  0.31279500  0.37559000  1.0
  S2-  S90  1  0.77489136  0.80884112  0.37646321  1.0
  S2-  S91  1  0.77535400  0.31279500  0.37559000  1.0
  S2-  S92  1  0.97648739  0.81609776  0.37417101  1.0
  S2-  S93  1  0.97666891  0.31420337  0.37548531  1.0
  S2-  S94  1  0.07488200  0.81279500  0.37559000  1.0
  S2-  S95  1  0.07488200  0.31279500  0.37559000  1.0
  S2-  S96  1  0.27398514  0.80938475  0.37486061  1.0
  S2-  S97  1  0.27488200  0.31279500  0.37559000  1.0
  S2-  S98  1  0.47488200  0.81279500  0.37559000  1.0
  S2-  S99  1  0.47488200  0.31279500  0.37559000  1.0
  S2-  S100  1  0.67674895  0.80690373  0.37720158  1.0
  S2-  S101  1  0.67488200  0.31279500  0.37559000  1.0
  S2-  S102  1  0.87278857  0.80997726  0.37824909  1.0
  S2-  S103  1  0.87488200  0.31279500  0.37559000  1.0
  S2-  S104  1  0.07488200  0.56161500  0.37559000  1.0
  S2-  S105  1  0.07488200  0.06161500  0.37559000  1.0
  S2-  S106  1  0.27488200  0.56161500  0.37559000  1.0
  S2-  S107  1  0.27488200  0.06161500  0.37559000  1.0
  S2-  S108  1  0.47488200  0.56161500  0.37559000  1.0
  S2-  S109  1  0.47488200  0.06161500  0.37559000  1.0
  S2-  S110  1  0.67488200  0.56161500  0.37559000  1.0
  S2-  S111  1  0.67649050  0.06231360  0.37647750  1.0
  S2-  S112  1  0.87488200  0.56161500  0.37559000  1.0
  S2-  S113  1  0.87488200  0.06161500  0.37559000  1.0
  S2-  S114  1  0.07488200  0.81279500  0.87323000  1.0
  S2-  S115  1  0.07488200  0.31279500  0.87323000  1.0
  S2-  S116  1  0.27488200  0.81279500  0.87323000  1.0
  S2-  S117  1  0.27329434  0.31013062  0.86946398  1.0
  S2-  S118  1  0.47488200  0.81279500  0.87323000  1.0
  S2-  S119  1  0.47488200  0.31279500  0.87323000  1.0
  S2-  S120  1  0.67488200  0.81279500  0.87323000  1.0
  S2-  S121  1  0.67488200  0.31279500  0.87323000  1.0
  S2-  S122  1  0.87488200  0.81279500  0.87323000  1.0
  S2-  S123  1  0.87200977  0.31444247  0.87155074  1.0
  I-  I124  1  0.00000000  0.00000000  0.75000000  1.0
  I-  I125  1  0.00000000  0.50000000  0.75000000  1.0
  I-  I126  1  0.20000000  0.00000000  0.75000000  1.0
  I-  I127  1  0.20000000  0.50000000  0.75000000  1.0
  I-  I128  1  0.39931566  0.99611706  0.75186070  1.0
  I-  I129  1  0.40000000  0.50000000  0.75000000  1.0
  I-  I130  1  0.60000000  0.00000000  0.75000000  1.0
  I-  I131  1  0.60000000  0.50000000  0.75000000  1.0
  I-  I132  1  0.80000000  0.00000000  0.75000000  1.0
  I-  I133  1  0.79782064  0.50530892  0.75202453  1.0
