# generated using pymatgen
data_Li32Si2Sb3(S5I)5
_symmetry_space_group_name_H-M   'P 1'
_cell_length_a   36.69247798
_cell_length_b   7.33849560
_cell_length_c   14.67699119
_cell_angle_alpha   60.00000000
_cell_angle_beta   60.00000000
_cell_angle_gamma   60.00000000
_symmetry_Int_Tables_number   1
_chemical_formula_structural   Li32Si2Sb3(S5I)5
_chemical_formula_sum   'Li64 Si4 Sb6 S50 I10'
_cell_volume   2794.51288338
_cell_formula_units_Z   2
loop_
 _symmetry_equiv_pos_site_id
 _symmetry_equiv_pos_as_xyz
  1  'x, y, z'
loop_
 _atom_type_symbol
 _atom_type_oxidation_number
  Li+  1.0
  Si4+  4.0
  Sb5+  5.0
  S2-  -2.0
  I-  -1.0
loop_
 _atom_site_type_symbol
 _atom_site_label
 _atom_site_symmetry_multiplicity
 _atom_site_fract_x
 _atom_site_fract_y
 _atom_site_fract_z
 _atom_site_occupancy
  Li+  Li0  1  0.19562000  0.45570000  0.48905000  1.0
  Li+  Li1  1  0.19562000  0.45570000  0.98905000  1.0
  Li+  Li2  1  0.39562000  0.45570000  0.98905000  1.0
  Li+  Li3  1  0.59562000  0.45570000  0.48905000  1.0
  Li+  Li4  1  0.59562000  0.45570000  0.98905000  1.0
  Li+  Li5  1  0.79562000  0.45570000  0.98905000  1.0
  Li+  Li6  1  0.99562000  0.45570000  0.48905000  1.0
  Li+  Li7  1  0.31762000  0.97810000  0.22785000  1.0
  Li+  Li8  1  0.31762000  0.97810000  0.72785000  1.0
  Li+  Li9  1  0.71762000  0.97810000  0.22785000  1.0
  Li+  Li10  1  0.71762000  0.97810000  0.72785000  1.0
  Li+  Li11  1  0.91762000  0.97810000  0.22785000  1.0
  Li+  Li12  1  0.39562000  0.58810000  0.98905000  1.0
  Li+  Li13  1  0.59562000  0.58810000  0.98905000  1.0
  Li+  Li14  1  0.79562000  0.58810000  0.48905000  1.0
  Li+  Li15  1  0.99562000  0.58810000  0.48905000  1.0
  Li+  Li16  1  0.09114000  0.97810000  0.29405000  1.0
  Li+  Li17  1  0.09114000  0.97810000  0.79405000  1.0
  Li+  Li18  1  0.29114000  0.97810000  0.29405000  1.0
  Li+  Li19  1  0.29114000  0.97810000  0.79405000  1.0
  Li+  Li20  1  0.49114000  0.97810000  0.79405000  1.0
  Li+  Li21  1  0.69114000  0.97810000  0.29405000  1.0
  Li+  Li22  1  0.89114000  0.97810000  0.29405000  1.0
  Li+  Li23  1  0.89114000  0.97810000  0.79405000  1.0
  Li+  Li24  1  0.09114000  0.97810000  0.98905000  1.0
  Li+  Li25  1  0.29114000  0.97810000  0.48905000  1.0
  Li+  Li26  1  0.49114000  0.97810000  0.48905000  1.0
  Li+  Li27  1  0.69114000  0.97810000  0.48905000  1.0
  Li+  Li28  1  0.69114000  0.97810000  0.98905000  1.0
  Li+  Li29  1  0.89114000  0.97810000  0.48905000  1.0
  Li+  Li30  1  0.89114000  0.97810000  0.98905000  1.0
  Li+  Li31  1  0.39562000  0.45570000  0.29405000  1.0
  Li+  Li32  1  0.59562000  0.45570000  0.29405000  1.0
  Li+  Li33  1  0.79562000  0.45570000  0.79405000  1.0
  Li+  Li34  1  0.11762000  0.97810000  0.48905000  1.0
  Li+  Li35  1  0.11762000  0.97810000  0.98905000  1.0
  Li+  Li36  1  0.31762000  0.97810000  0.48905000  1.0
  Li+  Li37  1  0.31762000  0.97810000  0.98905000  1.0
  Li+  Li38  1  0.51762000  0.97810000  0.98905000  1.0
  Li+  Li39  1  0.71762000  0.97810000  0.48905000  1.0
  Li+  Li40  1  0.71762000  0.97810000  0.98905000  1.0
  Li+  Li41  1  0.19562000  0.58810000  0.22785000  1.0
  Li+  Li42  1  0.39562000  0.58810000  0.22785000  1.0
  Li+  Li43  1  0.59562000  0.58810000  0.72785000  1.0
  Li+  Li44  1  0.79562000  0.58810000  0.22785000  1.0
  Li+  Li45  1  0.99562000  0.58810000  0.22785000  1.0
  Li+  Li46  1  0.19562000  0.97810000  0.22785000  1.0
  Li+  Li47  1  0.19562000  0.97810000  0.72785000  1.0
  Li+  Li48  1  0.39562000  0.97810000  0.72785000  1.0
  Li+  Li49  1  0.59562000  0.97810000  0.22785000  1.0
  Li+  Li50  1  0.59562000  0.97810000  0.72785000  1.0
  Li+  Li51  1  0.09114000  0.58810000  0.98905000  1.0
  Li+  Li52  1  0.29114000  0.58810000  0.48905000  1.0
  Li+  Li53  1  0.49114000  0.58810000  0.98905000  1.0
  Li+  Li54  1  0.69114000  0.58810000  0.98905000  1.0
  Li+  Li55  1  0.19562000  0.97810000  0.79405000  1.0
  Li+  Li56  1  0.79562000  0.97810000  0.79405000  1.0
  Li+  Li57  1  0.99562000  0.97810000  0.29405000  1.0
  Li+  Li58  1  0.99562000  0.97810000  0.79405000  1.0
  Li+  Li59  1  0.11762000  0.45570000  0.48905000  1.0
  Li+  Li60  1  0.31762000  0.45570000  0.48905000  1.0
  Li+  Li61  1  0.31762000  0.45570000  0.98905000  1.0
  Li+  Li62  1  0.51762000  0.45570000  0.48905000  1.0
  Li+  Li63  1  0.91762000  0.45570000  0.48905000  1.0
  Si4+  Si64  1  0.10000000  0.50000000  0.25000000  1.0
  Si4+  Si65  1  0.30000000  0.50000000  0.75000000  1.0
  Si4+  Si66  1  0.50000000  0.50000000  0.75000000  1.0
  Si4+  Si67  1  0.70000000  0.50000000  0.75000000  1.0
  Sb5+  Sb68  1  0.10000000  0.50000000  0.75000000  1.0
  Sb5+  Sb69  1  0.30000000  0.50000000  0.25000000  1.0
  Sb5+  Sb70  1  0.50000000  0.50000000  0.25000000  1.0
  Sb5+  Sb71  1  0.70000000  0.50000000  0.25000000  1.0
  Sb5+  Sb72  1  0.90000000  0.50000000  0.25000000  1.0
  Sb5+  Sb73  1  0.90000000  0.50000000  0.75000000  1.0
  S2-  S1  1  0.15000000  0.75000000  0.37500000  1.0
  S2-  S1  1  0.15000000  0.75000000  0.87500000  1.0
  S2-  S1  1  0.35000000  0.75000000  0.37500000  1.0
  S2-  S1  1  0.35000000  0.75000000  0.87500000  1.0
  S2-  S1  1  0.55000000  0.75000000  0.37500000  1.0
  S2-  S1  1  0.55000000  0.75000000  0.87500000  1.0
  S2-  S1  1  0.75000000  0.75000000  0.37500000  1.0
  S2-  S1  1  0.75000000  0.75000000  0.87500000  1.0
  S2-  S1  1  0.95000000  0.75000000  0.37500000  1.0
  S2-  S1  1  0.95000000  0.75000000  0.87500000  1.0
  S2-  S2  1  0.17535400  0.37441000  0.18720500  1.0
  S2-  S2  1  0.17535400  0.37441000  0.68720500  1.0
  S2-  S2  1  0.37535400  0.37441000  0.18720500  1.0
  S2-  S2  1  0.37535400  0.37441000  0.68720500  1.0
  S2-  S2  1  0.57535400  0.37441000  0.18720500  1.0
  S2-  S2  1  0.57535400  0.37441000  0.68720500  1.0
  S2-  S2  1  0.77535400  0.37441000  0.18720500  1.0
  S2-  S2  1  0.77535400  0.37441000  0.68720500  1.0
  S2-  S2  1  0.97535400  0.37441000  0.18720500  1.0
  S2-  S2  1  0.97535400  0.37441000  0.68720500  1.0
  S2-  S2  1  0.07488200  0.37441000  0.18720500  1.0
  S2-  S2  1  0.07488200  0.37441000  0.68720500  1.0
  S2-  S2  1  0.27488200  0.37441000  0.18720500  1.0
  S2-  S2  1  0.27488200  0.37441000  0.68720500  1.0
  S2-  S2  1  0.47488200  0.37441000  0.18720500  1.0
  S2-  S2  1  0.47488200  0.37441000  0.68720500  1.0
  S2-  S2  1  0.67488200  0.37441000  0.18720500  1.0
  S2-  S2  1  0.67488200  0.37441000  0.68720500  1.0
  S2-  S2  1  0.87488200  0.37441000  0.18720500  1.0
  S2-  S2  1  0.87488200  0.37441000  0.68720500  1.0
  S2-  S2  1  0.07488200  0.37441000  0.43838500  1.0
  S2-  S2  1  0.07488200  0.37441000  0.93838500  1.0
  S2-  S2  1  0.27488200  0.37441000  0.43838500  1.0
  S2-  S2  1  0.27488200  0.37441000  0.93838500  1.0
  S2-  S2  1  0.47488200  0.37441000  0.43838500  1.0
  S2-  S2  1  0.47488200  0.37441000  0.93838500  1.0
  S2-  S2  1  0.67488200  0.37441000  0.43838500  1.0
  S2-  S2  1  0.67488200  0.37441000  0.93838500  1.0
  S2-  S2  1  0.87488200  0.37441000  0.43838500  1.0
  S2-  S2  1  0.87488200  0.37441000  0.93838500  1.0
  S2-  S2  1  0.07488200  0.87677000  0.18720500  1.0
  S2-  S2  1  0.07488200  0.87677000  0.68720500  1.0
  S2-  S2  1  0.27488200  0.87677000  0.18720500  1.0
  S2-  S2  1  0.27488200  0.87677000  0.68720500  1.0
  S2-  S2  1  0.47488200  0.87677000  0.18720500  1.0
  S2-  S2  1  0.47488200  0.87677000  0.68720500  1.0
  S2-  S2  1  0.67488200  0.87677000  0.18720500  1.0
  S2-  S2  1  0.67488200  0.87677000  0.68720500  1.0
  S2-  S2  1  0.87488200  0.87677000  0.18720500  1.0
  S2-  S2  1  0.87488200  0.87677000  0.68720500  1.0
  I-  I124  1  0.00000000  0.00000000  0.00000000  1.0
  I-  I125  1  0.00000000  0.00000000  0.50000000  1.0
  I-  I126  1  0.20000000  0.00000000  0.00000000  1.0
  I-  I127  1  0.20000000  0.00000000  0.50000000  1.0
  I-  I128  1  0.40000000  0.00000000  1.00000000  1.0
  I-  I129  1  0.40000000  0.00000000  0.50000000  1.0
  I-  I130  1  0.60000000  0.00000000  1.00000000  1.0
  I-  I131  1  0.60000000  0.00000000  0.50000000  1.0
  I-  I132  1  0.80000000  0.00000000  1.00000000  1.0
  I-  I133  1  0.80000000  0.00000000  0.50000000  1.0
