# generated using pymatgen
data_Li6PS5I
_symmetry_space_group_name_H-M   'P 1'
_cell_length_a   14.34196400
_cell_length_b   14.34196400
_cell_length_c   14.34196400
_cell_angle_alpha   60.00000000
_cell_angle_beta   120.00000000
_cell_angle_gamma   120.00000000
_symmetry_Int_Tables_number   1
_chemical_formula_structural   Li6PS5I
_chemical_formula_sum   'Li48 P8 S40 I8'
_cell_volume   2085.98358366
_cell_formula_units_Z   8
loop_
 _symmetry_equiv_pos_site_id
 _symmetry_equiv_pos_as_xyz
  1  'x, y, z'
loop_
 _atom_type_symbol
 _atom_type_oxidation_number
  Li+  1.0
  P5+  5.0
  S2-  -2.0
  I-  -1.0
loop_
 _atom_site_type_symbol
 _atom_site_label
 _atom_site_symmetry_multiplicity
 _atom_site_fract_x
 _atom_site_fract_y
 _atom_site_fract_z
 _atom_site_occupancy
  Li+  Li0  1  0.48818402  0.74102178  0.26266499  1.0
  Li+  Li1  1  0.49100000  0.24100000  0.25900000  1.0
  Li+  Li2  1  0.25900000  0.00900000  0.49100000  1.0
  Li+  Li3  1  0.75900000  0.74100000  0.25900000  1.0
  Li+  Li4  1  0.75900000  0.24100000  0.25900000  1.0
  Li+  Li5  1  0.25900000  0.00900000  0.75900000  1.0
  Li+  Li6  1  0.75900000  0.50900000  0.75900000  1.0
  Li+  Li7  1  0.75900000  0.00900000  0.75900000  1.0
  Li+  Li8  1  0.99100000  0.00900000  0.99100000  1.0
  Li+  Li9  1  0.49100000  0.24100000  0.99100000  1.0
  Li+  Li10  1  0.99100000  0.24100000  0.49100000  1.0
  Li+  Li11  1  0.30890000  0.01330000  0.26330000  1.0
  Li+  Li12  1  0.31068817  0.51906608  0.76625945  1.0
  Li+  Li13  1  0.30890000  0.01330000  0.76330000  1.0
  Li+  Li14  1  0.80890000  0.01330000  0.26330000  1.0
  Li+  Li15  1  0.80890000  0.01330000  0.76330000  1.0
  Li+  Li16  1  0.21870316  0.51142241  0.26499314  1.0
  Li+  Li17  1  0.71770000  0.51330000  0.76330000  1.0
  Li+  Li18  1  0.21770000  0.69110000  0.26330000  1.0
  Li+  Li19  1  0.21770000  0.69110000  0.76330000  1.0
  Li+  Li20  1  0.48670000  0.69110000  0.03230000  1.0
  Li+  Li21  1  0.98670000  0.69110000  0.53230000  1.0
  Li+  Li22  1  0.98442159  0.68959696  0.03424489  1.0
  Li+  Li23  1  0.98670000  0.19110000  0.03230000  1.0
  Li+  Li24  1  0.48670000  0.01330000  0.03230000  1.0
  Li+  Li25  1  0.98604242  0.50899315  0.53594580  1.0
  Li+  Li26  1  0.98555476  0.01028556  0.52848929  1.0
  Li+  Li27  1  0.21770000  0.51330000  0.94110000  1.0
  Li+  Li28  1  0.71705817  0.01199525  0.43923456  1.0
  Li+  Li29  1  0.80890000  0.51330000  0.03230000  1.0
  Li+  Li30  1  0.48670000  0.78230000  0.94110000  1.0
  Li+  Li31  1  0.98815896  0.78350958  0.44271544  1.0
  Li+  Li32  1  0.98670000  0.78230000  0.94110000  1.0
  Li+  Li33  1  0.30905592  0.28310942  0.26680982  1.0
  Li+  Li34  1  0.30945891  0.78162509  0.76336970  1.0
  Li+  Li35  1  0.30890000  0.28230000  0.76330000  1.0
  Li+  Li36  1  0.80890000  0.28230000  0.26330000  1.0
  Li+  Li37  1  0.48670000  0.51330000  0.44110000  1.0
  Li+  Li38  1  0.48670000  0.01330000  0.44110000  1.0
  Li+  Li39  1  0.48670000  0.01330000  0.94110000  1.0
  Li+  Li40  1  0.98670000  0.51330000  0.44110000  1.0
  Li+  Li41  1  0.48827202  0.27980214  0.76491675  1.0
  Li+  Li42  1  0.98670000  0.78230000  0.76330000  1.0
  Li+  Li43  1  0.48670000  0.69110000  0.76330000  1.0
  Li+  Li44  1  0.48323692  0.19050065  0.76374912  1.0
  Li+  Li45  1  0.98670000  0.19110000  0.26330000  1.0
  Li+  Li46  1  0.98670000  0.69110000  0.76330000  1.0
  Li+  Li47  1  0.98670000  0.19110000  0.76330000  1.0
  P5+  P48  1  0.25168773  0.74953493  0.50074945  1.0
  P5+  P49  1  0.25000000  0.25000000  0.50000000  1.0
  P5+  P50  1  0.25000000  0.75000000  0.00000000  1.0
  P5+  P51  1  0.25217490  0.24950745  0.99717564  1.0
  P5+  P52  1  0.75000000  0.75000000  0.50000000  1.0
  P5+  P53  1  0.74654380  0.25018826  0.50516333  1.0
  P5+  P54  1  0.74961561  0.75017173  0.00403924  1.0
  P5+  P55  1  0.75000000  0.25000000  0.00000000  1.0
  S2-  S56  1  0.19380165  0.80986441  0.55884410  1.0
  S2-  S57  1  0.19185000  0.30815000  0.55815000  1.0
  S2-  S58  1  0.19185000  0.80815000  0.05815000  1.0
  S2-  S59  1  0.19185000  0.30815000  0.05815000  1.0
  S2-  S60  1  0.69185000  0.80815000  0.55815000  1.0
  S2-  S61  1  0.69185000  0.30815000  0.55815000  1.0
  S2-  S62  1  0.69185000  0.80815000  0.05815000  1.0
  S2-  S63  1  0.69185000  0.30815000  0.05815000  1.0
  S2-  S64  1  0.42445000  0.80815000  0.55815000  1.0
  S2-  S65  1  0.42445000  0.30815000  0.55815000  1.0
  S2-  S66  1  0.42445000  0.80815000  0.05815000  1.0
  S2-  S67  1  0.42072763  0.30855300  0.05795624  1.0
  S2-  S68  1  0.92445000  0.80815000  0.55815000  1.0
  S2-  S69  1  0.92445000  0.30815000  0.55815000  1.0
  S2-  S70  1  0.92372517  0.80735098  0.05981436  1.0
  S2-  S71  1  0.92582539  0.31059155  0.05614603  1.0
  S2-  S72  1  0.19243200  0.81279225  0.32461564  1.0
  S2-  S73  1  0.19185000  0.30815000  0.32555000  1.0
  S2-  S74  1  0.19185000  0.80815000  0.82555000  1.0
  S2-  S75  1  0.19185000  0.30815000  0.82555000  1.0
  S2-  S76  1  0.68894316  0.80473950  0.32650642  1.0
  S2-  S77  1  0.69185000  0.30815000  0.32555000  1.0
  S2-  S78  1  0.69442801  0.80897372  0.82408822  1.0
  S2-  S79  1  0.69307389  0.30887790  0.82515578  1.0
  S2-  S80  1  0.19185000  0.57555000  0.55815000  1.0
  S2-  S81  1  0.19185000  0.07555000  0.55815000  1.0
  S2-  S82  1  0.19185000  0.57555000  0.05815000  1.0
  S2-  S83  1  0.19185000  0.07555000  0.05815000  1.0
  S2-  S84  1  0.68843189  0.57308065  0.55508118  1.0
  S2-  S85  1  0.69185000  0.07555000  0.55815000  1.0
  S2-  S86  1  0.69185000  0.57555000  0.05815000  1.0
  S2-  S87  1  0.69185000  0.07555000  0.05815000  1.0
  S2-  S88  1  0.37500000  0.62500000  0.37500000  1.0
  S2-  S89  1  0.37500000  0.12500000  0.37500000  1.0
  S2-  S90  1  0.37500000  0.62500000  0.87500000  1.0
  S2-  S91  1  0.37500000  0.12500000  0.87500000  1.0
  S2-  S92  1  0.87500000  0.62500000  0.37500000  1.0
  S2-  S93  1  0.87500000  0.12500000  0.37500000  1.0
  S2-  S94  1  0.87671832  0.62849298  0.87336851  1.0
  S2-  S95  1  0.87500000  0.12500000  0.87500000  1.0
  I-  I96  1  0.00000000  0.00000000  0.75000000  1.0
  I-  I97  1  0.00000000  0.50000000  0.75000000  1.0
  I-  I98  1  0.00000000  0.00000000  0.25000000  1.0
  I-  I99  1  0.00000000  0.50000000  0.25000000  1.0
  I-  I100  1  0.50000000  0.00000000  0.75000000  1.0
  I-  I101  1  0.50000000  0.50000000  0.75000000  1.0
  I-  I102  1  0.50000000  0.00000000  0.25000000  1.0
  I-  I103  1  0.50000000  0.50000000  0.25000000  1.0
