# generated using pymatgen
data_LiAlGeO4
_symmetry_space_group_name_H-M   'P 1'
_cell_length_a   17.04310844
_cell_length_b   8.52155422
_cell_length_c   17.04310844
_cell_angle_alpha   107.81530186
_cell_angle_beta   72.18469814
_cell_angle_gamma   72.18469814
_symmetry_Int_Tables_number   1
_chemical_formula_structural   LiAlGeO4
_chemical_formula_sum   'Li24 Al24 Ge24 O96'
_cell_volume   2013.79440458
_cell_formula_units_Z   24
loop_
 _symmetry_equiv_pos_site_id
 _symmetry_equiv_pos_as_xyz
  1  'x, y, z'
loop_
 _atom_type_symbol
 _atom_type_oxidation_number
  Li+  1.0
  Al3+  3.0
  Ge4+  4.0
  O2-  -2.0
loop_
 _atom_site_type_symbol
 _atom_site_label
 _atom_site_symmetry_multiplicity
 _atom_site_fract_x
 _atom_site_fract_y
 _atom_site_fract_z
 _atom_site_occupancy
  Li+  Li0  1  0.23066226  0.78243895  0.44271892  1.0
  Li+  Li1  1  0.23300000  0.78700000  0.94100000  1.0
  Li+  Li2  1  0.73300000  0.78700000  0.44100000  1.0
  Li+  Li3  1  0.73300000  0.78700000  0.94100000  1.0
  Li+  Li4  1  0.30900000  0.53400000  0.64350000  1.0
  Li+  Li5  1  0.30900000  0.53400000  0.14350000  1.0
  Li+  Li6  1  0.80900000  0.53400000  0.64350000  1.0
  Li+  Li7  1  0.80900000  0.53400000  0.14350000  1.0
  Li+  Li8  1  0.10650000  0.38200000  0.51700000  1.0
  Li+  Li9  1  0.10650000  0.38200000  0.01700000  1.0
  Li+  Li10  1  0.60650000  0.38200000  0.51700000  1.0
  Li+  Li11  1  0.60263583  0.38296999  0.01680347  1.0
  Li+  Li12  1  0.35911686  0.07190038  0.67692046  1.0
  Li+  Li13  1  0.35835000  0.07470000  0.17900000  1.0
  Li+  Li14  1  0.85586563  0.07402467  0.67689056  1.0
  Li+  Li15  1  0.85835000  0.07470000  0.17900000  1.0
  Li+  Li16  1  0.07373578  0.28250169  0.28652151  1.0
  Li+  Li17  1  0.07100000  0.28330000  0.78735000  1.0
  Li+  Li18  1  0.57100000  0.28330000  0.28735000  1.0
  Li+  Li19  1  0.57100000  0.28330000  0.78735000  1.0
  Li+  Li20  1  0.46265000  0.85800000  0.39165000  1.0
  Li+  Li21  1  0.46265000  0.85800000  0.89165000  1.0
  Li+  Li22  1  0.95869505  0.85858331  0.39756881  1.0
  Li+  Li23  1  0.96265000  0.85800000  0.89165000  1.0
  Al3+  Al24  1  0.38750000  0.45800000  0.27650000  1.0
  Al3+  Al25  1  0.38750000  0.45800000  0.77650000  1.0
  Al3+  Al26  1  0.88750000  0.45800000  0.27650000  1.0
  Al3+  Al27  1  0.88605956  0.46059295  0.77462880  1.0
  Al3+  Al28  1  0.46986554  0.21784273  0.48088901  1.0
  Al3+  Al29  1  0.47646079  0.22502842  0.97251223  1.0
  Al3+  Al30  1  0.97350000  0.22500000  0.47900000  1.0
  Al3+  Al31  1  0.97350000  0.22500000  0.97900000  1.0
  Al3+  Al32  1  0.27100000  0.05300000  0.36250000  1.0
  Al3+  Al33  1  0.27100000  0.05300000  0.86250000  1.0
  Al3+  Al34  1  0.77100000  0.05300000  0.36250000  1.0
  Al3+  Al35  1  0.76964523  0.04844927  0.86085059  1.0
  Al3+  Al36  1  0.12217633  0.53351395  0.72348117  1.0
  Al3+  Al37  1  0.12000000  0.53500000  0.22100000  1.0
  Al3+  Al38  1  0.62000000  0.53500000  0.72100000  1.0
  Al3+  Al39  1  0.62000000  0.53500000  0.22100000  1.0
  Al3+  Al40  1  0.02900000  0.76000000  0.51750000  1.0
  Al3+  Al41  1  0.02900000  0.76000000  0.01750000  1.0
  Al3+  Al42  1  0.52900000  0.76000000  0.51750000  1.0
  Al3+  Al43  1  0.52900000  0.76000000  0.01750000  1.0
  Al3+  Al44  1  0.23250000  0.94200000  0.63000000  1.0
  Al3+  Al45  1  0.23250000  0.94200000  0.13000000  1.0
  Al3+  Al46  1  0.73124813  0.94108931  0.62978994  1.0
  Al3+  Al47  1  0.73250000  0.94200000  0.13000000  1.0
  Ge4+  Ge48  1  0.28500000  0.19800000  0.55300000  1.0
  Ge4+  Ge49  1  0.28500000  0.19800000  0.05300000  1.0
  Ge4+  Ge50  1  0.78250060  0.20045551  0.55456303  1.0
  Ge4+  Ge51  1  0.78500000  0.19800000  0.05300000  1.0
  Ge4+  Ge52  1  0.19700000  0.43000000  0.34900000  1.0
  Ge4+  Ge53  1  0.19851688  0.43358112  0.85164934  1.0
  Ge4+  Ge54  1  0.69700000  0.43000000  0.34900000  1.0
  Ge4+  Ge55  1  0.69700000  0.43000000  0.84900000  1.0
  Ge4+  Ge56  1  0.40100000  0.60600000  0.46500000  1.0
  Ge4+  Ge57  1  0.40100000  0.60600000  0.96500000  1.0
  Ge4+  Ge58  1  0.90180771  0.60130437  0.46904609  1.0
  Ge4+  Ge59  1  0.90187786  0.61002830  0.96801399  1.0
  Ge4+  Ge60  1  0.14250000  0.89400000  0.31200000  1.0
  Ge4+  Ge61  1  0.14387137  0.89454436  0.81242464  1.0
  Ge4+  Ge62  1  0.64250000  0.89400000  0.31200000  1.0
  Ge4+  Ge63  1  0.64250000  0.89400000  0.81200000  1.0
  Ge4+  Ge64  1  0.43800000  0.71500000  0.69700000  1.0
  Ge4+  Ge65  1  0.43800000  0.71500000  0.19700000  1.0
  Ge4+  Ge66  1  0.93800000  0.71500000  0.69700000  1.0
  Ge4+  Ge67  1  0.93800000  0.71500000  0.19700000  1.0
  Ge4+  Ge68  1  0.05300000  0.12400000  0.60750000  1.0
  Ge4+  Ge69  1  0.05300000  0.12400000  0.10750000  1.0
  Ge4+  Ge70  1  0.55300000  0.12400000  0.60750000  1.0
  Ge4+  Ge71  1  0.55300000  0.12400000  0.10750000  1.0
  O2-  O72  1  0.47191594  0.36089730  0.40827994  1.0
  O2-  O73  1  0.47250000  0.35800000  0.91150000  1.0
  O2-  O74  1  0.97250000  0.35800000  0.41150000  1.0
  O2-  O75  1  0.97250000  0.35800000  0.91150000  1.0
  O2-  O76  1  0.33850000  0.05500000  0.42900000  1.0
  O2-  O77  1  0.33850000  0.05500000  0.92900000  1.0
  O2-  O78  1  0.83850000  0.05500000  0.42900000  1.0
  O2-  O79  1  0.83850000  0.05500000  0.92900000  1.0
  O2-  O80  1  0.32537141  0.31940993  0.28032301  1.0
  O2-  O81  1  0.32100000  0.32300000  0.77750000  1.0
  O2-  O82  1  0.82495686  0.32340018  0.27734609  1.0
  O2-  O83  1  0.81727151  0.32323121  0.78059036  1.0
  O2-  O84  1  0.01450000  0.62500000  0.57950000  1.0
  O2-  O85  1  0.01413500  0.62885481  0.07719726  1.0
  O2-  O86  1  0.51450000  0.62500000  0.57950000  1.0
  O2-  O87  1  0.51071165  0.62690025  0.08166474  1.0
  O2-  O88  1  0.17050000  0.97100000  0.56250000  1.0
  O2-  O89  1  0.17050000  0.97100000  0.06250000  1.0
  O2-  O90  1  0.67050000  0.97100000  0.56250000  1.0
  O2-  O91  1  0.67050000  0.97100000  0.06250000  1.0
  O2-  O92  1  0.18750000  0.65900000  0.73550000  1.0
  O2-  O93  1  0.18750000  0.65900000  0.23550000  1.0
  O2-  O94  1  0.68964871  0.65444515  0.73785187  1.0
  O2-  O95  1  0.68481491  0.65942104  0.23401167  1.0
  O2-  O96  1  0.21450000  0.89500000  0.37150000  1.0
  O2-  O97  1  0.21450000  0.89500000  0.87150000  1.0
  O2-  O98  1  0.71527587  0.89616110  0.36992855  1.0
  O2-  O99  1  0.71360151  0.89897175  0.87184735  1.0
  O2-  O100  1  0.37850000  0.57100000  0.69750000  1.0
  O2-  O101  1  0.37850000  0.57100000  0.19750000  1.0
  O2-  O102  1  0.87850000  0.57100000  0.69750000  1.0
  O2-  O103  1  0.87850000  0.57100000  0.19750000  1.0
  O2-  O104  1  0.05250000  0.24300000  0.53550000  1.0
  O2-  O105  1  0.05250000  0.24300000  0.03550000  1.0
  O2-  O106  1  0.55161436  0.24165418  0.53132655  1.0
  O2-  O107  1  0.55250000  0.24300000  0.03550000  1.0
  O2-  O108  1  0.30000000  0.08300000  0.60600000  1.0
  O2-  O109  1  0.30000000  0.08300000  0.10600000  1.0
  O2-  O110  1  0.80000000  0.08300000  0.60600000  1.0
  O2-  O111  1  0.80000000  0.08300000  0.10600000  1.0
  O2-  O112  1  0.14400000  0.40000000  0.29150000  1.0
  O2-  O113  1  0.14400000  0.40000000  0.79150000  1.0
  O2-  O114  1  0.64400000  0.40000000  0.29150000  1.0
  O2-  O115  1  0.64400000  0.40000000  0.79150000  1.0
  O2-  O116  1  0.45850000  0.71200000  0.45000000  1.0
  O2-  O117  1  0.45850000  0.71200000  0.95000000  1.0
  O2-  O118  1  0.95353318  0.70834973  0.45626858  1.0
  O2-  O119  1  0.95850000  0.71200000  0.95000000  1.0
  O2-  O120  1  0.00950000  0.69400000  0.74750000  1.0
  O2-  O121  1  0.00950000  0.69400000  0.24750000  1.0
  O2-  O122  1  0.50950000  0.69400000  0.74750000  1.0
  O2-  O123  1  0.50950000  0.69400000  0.24750000  1.0
  O2-  O124  1  0.00318867  0.98278221  0.59343789  1.0
  O2-  O125  1  0.00250000  0.98100000  0.09700000  1.0
  O2-  O126  1  0.50250000  0.98100000  0.59700000  1.0
  O2-  O127  1  0.49951160  0.98153618  0.09845301  1.0
  O2-  O128  1  0.15450101  0.99290109  0.73972570  1.0
  O2-  O129  1  0.15227389  0.99827606  0.23684114  1.0
  O2-  O130  1  0.65300000  0.99500000  0.74050000  1.0
  O2-  O131  1  0.65300000  0.99500000  0.24050000  1.0
  O2-  O132  1  0.01250000  0.27700000  0.71700000  1.0
  O2-  O133  1  0.01250000  0.27700000  0.21700000  1.0
  O2-  O134  1  0.51250000  0.27700000  0.71700000  1.0
  O2-  O135  1  0.51250000  0.27700000  0.21700000  1.0
  O2-  O136  1  0.03235798  0.97744541  0.38764360  1.0
  O2-  O137  1  0.03300000  0.97500000  0.88850000  1.0
  O2-  O138  1  0.53300000  0.97500000  0.38850000  1.0
  O2-  O139  1  0.52969726  0.97640770  0.88402014  1.0
  O2-  O140  1  0.36150000  0.93400000  0.73750000  1.0
  O2-  O141  1  0.36150000  0.93400000  0.23750000  1.0
  O2-  O142  1  0.86150000  0.93400000  0.73750000  1.0
  O2-  O143  1  0.86042653  0.93724490  0.23807385  1.0
  O2-  O144  1  0.15386426  0.63408941  0.44466060  1.0
  O2-  O145  1  0.15350000  0.63500000  0.94350000  1.0
  O2-  O146  1  0.65350000  0.63500000  0.44350000  1.0
  O2-  O147  1  0.65350000  0.63500000  0.94350000  1.0
  O2-  O148  1  0.30373520  0.69342438  0.56732714  1.0
  O2-  O149  1  0.30674277  0.69763280  0.06554803  1.0
  O2-  O150  1  0.80650000  0.69300000  0.56750000  1.0
  O2-  O151  1  0.80650000  0.69300000  0.06750000  1.0
  O2-  O152  1  0.18250000  0.38700000  0.59650000  1.0
  O2-  O153  1  0.18250000  0.38700000  0.09650000  1.0
  O2-  O154  1  0.68250000  0.38700000  0.59650000  1.0
  O2-  O155  1  0.68250000  0.38700000  0.09650000  1.0
  O2-  O156  1  0.36800000  0.28800000  0.55950000  1.0
  O2-  O157  1  0.36800000  0.28800000  0.05950000  1.0
  O2-  O158  1  0.86800000  0.28800000  0.55950000  1.0
  O2-  O159  1  0.86583251  0.28992074  0.05611749  1.0
  O2-  O160  1  0.19050000  0.26400000  0.39400000  1.0
  O2-  O161  1  0.19050000  0.26400000  0.89400000  1.0
  O2-  O162  1  0.69078723  0.26347927  0.39720760  1.0
  O2-  O163  1  0.69050000  0.26400000  0.89400000  1.0
  O2-  O164  1  0.35600000  0.61900000  0.38200000  1.0
  O2-  O165  1  0.35600000  0.61900000  0.88200000  1.0
  O2-  O166  1  0.85600000  0.61900000  0.38200000  1.0
  O2-  O167  1  0.85646650  0.61530239  0.88251290  1.0
