# generated using pymatgen
data_LiAlGeO4
_symmetry_space_group_name_H-M   'P 1'
_cell_length_a   17.07291682
_cell_length_b   17.07291682
_cell_length_c   8.53645841
_cell_angle_alpha   72.18469814
_cell_angle_beta   72.18469814
_cell_angle_gamma   107.81530186
_symmetry_Int_Tables_number   1
_chemical_formula_structural   LiAlGeO4
_chemical_formula_sum   'Li24 Al24 Ge24 O96'
_cell_volume   2024.37926927
_cell_formula_units_Z   24
loop_
 _symmetry_equiv_pos_site_id
 _symmetry_equiv_pos_as_xyz
  1  'x, y, z'
loop_
 _atom_type_symbol
 _atom_type_oxidation_number
  Li+  1.0
  Al3+  3.0
  Ge4+  4.0
  O2-  -2.0
loop_
 _atom_site_type_symbol
 _atom_site_label
 _atom_site_symmetry_multiplicity
 _atom_site_fract_x
 _atom_site_fract_y
 _atom_site_fract_z
 _atom_site_occupancy
  Li+  Li0  1  0.69100000  0.43366667  0.21300000  1.0
  Li+  Li1  1  0.19100000  0.43366667  0.21300000  1.0
  Li+  Li2  1  0.69100000  0.93366667  0.21300000  1.0
  Li+  Li3  1  0.19100000  0.93366667  0.21300000  1.0
  Li+  Li4  1  0.89350000  0.35766667  0.46600000  1.0
  Li+  Li5  1  0.39350000  0.35766667  0.46600000  1.0
  Li+  Li6  1  0.89350000  0.85766667  0.46600000  1.0
  Li+  Li7  1  0.39350000  0.85766667  0.46600000  1.0
  Li+  Li8  1  0.76700000  0.56016667  0.61800000  1.0
  Li+  Li9  1  0.26700000  0.56016667  0.61800000  1.0
  Li+  Li10  1  0.76700000  0.06016667  0.61800000  1.0
  Li+  Li11  1  0.26700000  0.06016667  0.61800000  1.0
  Li+  Li12  1  0.92900000  0.30831667  0.92530000  1.0
  Li+  Li13  1  0.42900000  0.30831667  0.92530000  1.0
  Li+  Li14  1  0.92900000  0.80831667  0.92530000  1.0
  Li+  Li15  1  0.42900000  0.80831667  0.92530000  1.0
  Li+  Li16  1  0.53735000  0.59566667  0.71670000  1.0
  Li+  Li17  1  0.03735000  0.59566667  0.71670000  1.0
  Li+  Li18  1  0.53735000  0.09566667  0.71670000  1.0
  Li+  Li19  1  0.03735000  0.09566667  0.71670000  1.0
  Li+  Li20  1  0.64165000  0.20401667  0.14200000  1.0
  Li+  Li21  1  0.14165000  0.20401667  0.14200000  1.0
  Li+  Li22  1  0.64165000  0.70401667  0.14200000  1.0
  Li+  Li23  1  0.14165000  0.70401667  0.14200000  1.0
  Al3+  Al24  1  0.52650000  0.27916667  0.54200000  1.0
  Al3+  Al25  1  0.02650000  0.27916667  0.54200000  1.0
  Al3+  Al26  1  0.52650000  0.77916667  0.54200000  1.0
  Al3+  Al27  1  0.02650000  0.77916667  0.54200000  1.0
  Al3+  Al28  1  0.72900000  0.19316667  0.77500000  1.0
  Al3+  Al29  1  0.22900000  0.19316667  0.77500000  1.0
  Al3+  Al30  1  0.72900000  0.69316667  0.77500000  1.0
  Al3+  Al31  1  0.22900000  0.69316667  0.77500000  1.0
  Al3+  Al32  1  0.61250000  0.39566667  0.94700000  1.0
  Al3+  Al33  1  0.11250000  0.39566667  0.94700000  1.0
  Al3+  Al34  1  0.61250000  0.89566667  0.94700000  1.0
  Al3+  Al35  1  0.11250000  0.89566667  0.94700000  1.0
  Al3+  Al36  1  0.97100000  0.54666667  0.46500000  1.0
  Al3+  Al37  1  0.47100000  0.54666667  0.46500000  1.0
  Al3+  Al38  1  0.97100000  0.04666667  0.46500000  1.0
  Al3+  Al39  1  0.47100000  0.04666667  0.46500000  1.0
  Al3+  Al40  1  0.76750000  0.63766667  0.24000000  1.0
  Al3+  Al41  1  0.26750000  0.63766667  0.24000000  1.0
  Al3+  Al42  1  0.76750000  0.13766667  0.24000000  1.0
  Al3+  Al43  1  0.26750000  0.13766667  0.24000000  1.0
  Al3+  Al44  1  0.88000000  0.43416667  0.05800000  1.0
  Al3+  Al45  1  0.38000000  0.43416667  0.05800000  1.0
  Al3+  Al46  1  0.88000000  0.93416667  0.05800000  1.0
  Al3+  Al47  1  0.38000000  0.93416667  0.05800000  1.0
  Ge4+  Ge48  1  0.80300000  0.38166667  0.80200000  1.0
  Ge4+  Ge49  1  0.30300000  0.38166667  0.80200000  1.0
  Ge4+  Ge50  1  0.80300000  0.88166667  0.80200000  1.0
  Ge4+  Ge51  1  0.30300000  0.88166667  0.80200000  1.0
  Ge4+  Ge52  1  0.59900000  0.46966667  0.57000000  1.0
  Ge4+  Ge53  1  0.09900000  0.46966667  0.57000000  1.0
  Ge4+  Ge54  1  0.59900000  0.96966667  0.57000000  1.0
  Ge4+  Ge55  1  0.09900000  0.96966667  0.57000000  1.0
  Ge4+  Ge56  1  0.71500000  0.26566667  0.39400000  1.0
  Ge4+  Ge57  1  0.21500000  0.26566667  0.39400000  1.0
  Ge4+  Ge58  1  0.71500000  0.76566667  0.39400000  1.0
  Ge4+  Ge59  1  0.21500000  0.76566667  0.39400000  1.0
  Ge4+  Ge60  1  0.56200000  0.52416667  0.10600000  1.0
  Ge4+  Ge61  1  0.06200000  0.52416667  0.10600000  1.0
  Ge4+  Ge62  1  0.56200000  0.02416667  0.10600000  1.0
  Ge4+  Ge63  1  0.06200000  0.02416667  0.10600000  1.0
  Ge4+  Ge64  1  0.94700000  0.22866667  0.28500000  1.0
  Ge4+  Ge65  1  0.44700000  0.22866667  0.28500000  1.0
  Ge4+  Ge66  1  0.94700000  0.72866667  0.28500000  1.0
  Ge4+  Ge67  1  0.44700000  0.72866667  0.28500000  1.0
  Ge4+  Ge68  1  0.85750000  0.61366667  0.87600000  1.0
  Ge4+  Ge69  1  0.35750000  0.61366667  0.87600000  1.0
  Ge4+  Ge70  1  0.85750000  0.11366667  0.87600000  1.0
  Ge4+  Ge71  1  0.35750000  0.11366667  0.87600000  1.0
  O2-  O72  1  0.66150000  0.19416667  0.64200000  1.0
  O2-  O73  1  0.16150000  0.19416667  0.64200000  1.0
  O2-  O74  1  0.66150000  0.69416667  0.64200000  1.0
  O2-  O75  1  0.16150000  0.69416667  0.64200000  1.0
  O2-  O76  1  0.67900000  0.32816667  0.94500000  1.0
  O2-  O77  1  0.17900000  0.32816667  0.94500000  1.0
  O2-  O78  1  0.67900000  0.82816667  0.94500000  1.0
  O2-  O79  1  0.17900000  0.82816667  0.94500000  1.0
  O2-  O80  1  0.52750000  0.34566667  0.67700000  1.0
  O2-  O81  1  0.02750000  0.34566667  0.67700000  1.0
  O2-  O82  1  0.52750000  0.84566667  0.67700000  1.0
  O2-  O83  1  0.02750000  0.84566667  0.67700000  1.0
  O2-  O84  1  0.82950000  0.65216667  0.37500000  1.0
  O2-  O85  1  0.32950000  0.65216667  0.37500000  1.0
  O2-  O86  1  0.82950000  0.15216667  0.37500000  1.0
  O2-  O87  1  0.32950000  0.15216667  0.37500000  1.0
  O2-  O88  1  0.81250000  0.49616667  0.02900000  1.0
  O2-  O89  1  0.31250000  0.49616667  0.02900000  1.0
  O2-  O90  1  0.81250000  0.99616667  0.02900000  1.0
  O2-  O91  1  0.31250000  0.99616667  0.02900000  1.0
  O2-  O92  1  0.98550000  0.47916667  0.34100000  1.0
  O2-  O93  1  0.48550000  0.47916667  0.34100000  1.0
  O2-  O94  1  0.98550000  0.97916667  0.34100000  1.0
  O2-  O95  1  0.48550000  0.97916667  0.34100000  1.0
  O2-  O96  1  0.62150000  0.45216667  0.10500000  1.0
  O2-  O97  1  0.12150000  0.45216667  0.10500000  1.0
  O2-  O98  1  0.62150000  0.95216667  0.10500000  1.0
  O2-  O99  1  0.12150000  0.95216667  0.10500000  1.0
  O2-  O100  1  0.94750000  0.28816667  0.42900000  1.0
  O2-  O101  1  0.44750000  0.28816667  0.42900000  1.0
  O2-  O102  1  0.94750000  0.78816667  0.42900000  1.0
  O2-  O103  1  0.44750000  0.78816667  0.42900000  1.0
  O2-  O104  1  0.78550000  0.61416667  0.75700000  1.0
  O2-  O105  1  0.28550000  0.61416667  0.75700000  1.0
  O2-  O106  1  0.78550000  0.11416667  0.75700000  1.0
  O2-  O107  1  0.28550000  0.11416667  0.75700000  1.0
  O2-  O108  1  0.85600000  0.36666667  0.91700000  1.0
  O2-  O109  1  0.35600000  0.36666667  0.91700000  1.0
  O2-  O110  1  0.85600000  0.86666667  0.91700000  1.0
  O2-  O111  1  0.35600000  0.86666667  0.91700000  1.0
  O2-  O112  1  0.54150000  0.52266667  0.60000000  1.0
  O2-  O113  1  0.04150000  0.52266667  0.60000000  1.0
  O2-  O114  1  0.54150000  0.02266667  0.60000000  1.0
  O2-  O115  1  0.04150000  0.02266667  0.60000000  1.0
  O2-  O116  1  0.70000000  0.20816667  0.28800000  1.0
  O2-  O117  1  0.20000000  0.20816667  0.28800000  1.0
  O2-  O118  1  0.70000000  0.70816667  0.28800000  1.0
  O2-  O119  1  0.20000000  0.70816667  0.28800000  1.0
  O2-  O120  1  0.99750000  0.65716667  0.30600000  1.0
  O2-  O121  1  0.49750000  0.65716667  0.30600000  1.0
  O2-  O122  1  0.99750000  0.15716667  0.30600000  1.0
  O2-  O123  1  0.49750000  0.15716667  0.30600000  1.0
  O2-  O124  1  0.84700000  0.66416667  0.01900000  1.0
  O2-  O125  1  0.34700000  0.66416667  0.01900000  1.0
  O2-  O126  1  0.84700000  0.16416667  0.01900000  1.0
  O2-  O127  1  0.34700000  0.16416667  0.01900000  1.0
  O2-  O128  1  0.99050000  0.51366667  0.00500000  1.0
  O2-  O129  1  0.49050000  0.51366667  0.00500000  1.0
  O2-  O130  1  0.99050000  0.01366667  0.00500000  1.0
  O2-  O131  1  0.49050000  0.01366667  0.00500000  1.0
  O2-  O132  1  0.96700000  0.65416667  0.72300000  1.0
  O2-  O133  1  0.46700000  0.65416667  0.72300000  1.0
  O2-  O134  1  0.96700000  0.15416667  0.72300000  1.0
  O2-  O135  1  0.46700000  0.15416667  0.72300000  1.0
  O2-  O136  1  0.63850000  0.63366667  0.02500000  1.0
  O2-  O137  1  0.13850000  0.63366667  0.02500000  1.0
  O2-  O138  1  0.63850000  0.13366667  0.02500000  1.0
  O2-  O139  1  0.13850000  0.13366667  0.02500000  1.0
  O2-  O140  1  0.98750000  0.30516667  0.06600000  1.0
  O2-  O141  1  0.48750000  0.30516667  0.06600000  1.0
  O2-  O142  1  0.98750000  0.80516667  0.06600000  1.0
  O2-  O143  1  0.48750000  0.80516667  0.06600000  1.0
  O2-  O144  1  0.69350000  0.51316667  0.36500000  1.0
  O2-  O145  1  0.19350000  0.51316667  0.36500000  1.0
  O2-  O146  1  0.69350000  0.01316667  0.36500000  1.0
  O2-  O147  1  0.19350000  0.01316667  0.36500000  1.0
  O2-  O148  1  0.81750000  0.36016667  0.30700000  1.0
  O2-  O149  1  0.31750000  0.36016667  0.30700000  1.0
  O2-  O150  1  0.81750000  0.86016667  0.30700000  1.0
  O2-  O151  1  0.31750000  0.86016667  0.30700000  1.0
  O2-  O152  1  0.84650000  0.48416667  0.61300000  1.0
  O2-  O153  1  0.34650000  0.48416667  0.61300000  1.0
  O2-  O154  1  0.84650000  0.98416667  0.61300000  1.0
  O2-  O155  1  0.34650000  0.98416667  0.61300000  1.0
  O2-  O156  1  0.80950000  0.29866667  0.71200000  1.0
  O2-  O157  1  0.30950000  0.29866667  0.71200000  1.0
  O2-  O158  1  0.80950000  0.79866667  0.71200000  1.0
  O2-  O159  1  0.30950000  0.79866667  0.71200000  1.0
  O2-  O160  1  0.64400000  0.47616667  0.73600000  1.0
  O2-  O161  1  0.14400000  0.47616667  0.73600000  1.0
  O2-  O162  1  0.64400000  0.97616667  0.73600000  1.0
  O2-  O163  1  0.14400000  0.97616667  0.73600000  1.0
  O2-  O164  1  0.63200000  0.31066667  0.38100000  1.0
  O2-  O165  1  0.13200000  0.31066667  0.38100000  1.0
  O2-  O166  1  0.63200000  0.81066667  0.38100000  1.0
  O2-  O167  1  0.13200000  0.81066667  0.38100000  1.0
