# generated using pymatgen
data_LiAlGeO4
_symmetry_space_group_name_H-M   'P 1'
_cell_length_a   17.04310844
_cell_length_b   17.04310844
_cell_length_c   8.52155422
_cell_angle_alpha   107.81530186
_cell_angle_beta   107.81530186
_cell_angle_gamma   107.81530186
_symmetry_Int_Tables_number   1
_chemical_formula_structural   LiAlGeO4
_chemical_formula_sum   'Li24 Al24 Ge24 O96'
_cell_volume   2013.79440458
_cell_formula_units_Z   24
loop_
 _symmetry_equiv_pos_site_id
 _symmetry_equiv_pos_as_xyz
  1  'x, y, z'
loop_
 _atom_type_symbol
 _atom_type_oxidation_number
  Li+  1.0
  Al3+  3.0
  Ge4+  4.0
  O2-  -2.0
loop_
 _atom_site_type_symbol
 _atom_site_label
 _atom_site_symmetry_multiplicity
 _atom_site_fract_x
 _atom_site_fract_y
 _atom_site_fract_z
 _atom_site_occupancy
  Li+  Li1  1  0.23300000  0.30900000  0.21300000  1.0
  Li+  Li1  1  0.23300000  0.80900000  0.21300000  1.0
  Li+  Li1  1  0.73300000  0.30900000  0.21300000  1.0
  Li+  Li1  1  0.73300000  0.80900000  0.21300000  1.0
  Li+  Li1  1  0.30900000  0.10650000  0.46600000  1.0
  Li+  Li1  1  0.30900000  0.60650000  0.46600000  1.0
  Li+  Li1  1  0.80900000  0.10650000  0.46600000  1.0
  Li+  Li1  1  0.80900000  0.60650000  0.46600000  1.0
  Li+  Li1  1  0.10650000  0.23300000  0.61800000  1.0
  Li+  Li1  1  0.10650000  0.73300000  0.61800000  1.0
  Li+  Li1  1  0.60650000  0.23300000  0.61800000  1.0
  Li+  Li1  1  0.60650000  0.73300000  0.61800000  1.0
  Li+  Li2  1  0.35835000  0.07100000  0.92530000  1.0
  Li+  Li2  1  0.35835000  0.57100000  0.92530000  1.0
  Li+  Li2  1  0.85835000  0.07100000  0.92530000  1.0
  Li+  Li2  1  0.85835000  0.57100000  0.92530000  1.0
  Li+  Li2  1  0.07100000  0.46265000  0.71670000  1.0
  Li+  Li2  1  0.07100000  0.96265000  0.71670000  1.0
  Li+  Li2  1  0.57100000  0.46265000  0.71670000  1.0
  Li+  Li2  1  0.57100000  0.96265000  0.71670000  1.0
  Li+  Li2  1  0.46265000  0.35835000  0.14200000  1.0
  Li+  Li2  1  0.46265000  0.85835000  0.14200000  1.0
  Li+  Li2  1  0.96265000  0.35835000  0.14200000  1.0
  Li+  Li2  1  0.96265000  0.85835000  0.14200000  1.0
  Al3+  Al1  1  0.38750000  0.47350000  0.54200000  1.0
  Al3+  Al1  1  0.38750000  0.97350000  0.54200000  1.0
  Al3+  Al1  1  0.88750000  0.47350000  0.54200000  1.0
  Al3+  Al1  1  0.88750000  0.97350000  0.54200000  1.0
  Al3+  Al1  1  0.47350000  0.27100000  0.77500000  1.0
  Al3+  Al1  1  0.47350000  0.77100000  0.77500000  1.0
  Al3+  Al1  1  0.97350000  0.27100000  0.77500000  1.0
  Al3+  Al1  1  0.97350000  0.77100000  0.77500000  1.0
  Al3+  Al1  1  0.27100000  0.38750000  0.94700000  1.0
  Al3+  Al1  1  0.27100000  0.88750000  0.94700000  1.0
  Al3+  Al1  1  0.77100000  0.38750000  0.94700000  1.0
  Al3+  Al1  1  0.77100000  0.88750000  0.94700000  1.0
  Al3+  Al2  1  0.12000000  0.02900000  0.46500000  1.0
  Al3+  Al2  1  0.12000000  0.52900000  0.46500000  1.0
  Al3+  Al2  1  0.62000000  0.02900000  0.46500000  1.0
  Al3+  Al2  1  0.62000000  0.52900000  0.46500000  1.0
  Al3+  Al2  1  0.02900000  0.23250000  0.24000000  1.0
  Al3+  Al2  1  0.02900000  0.73250000  0.24000000  1.0
  Al3+  Al2  1  0.52900000  0.23250000  0.24000000  1.0
  Al3+  Al2  1  0.52900000  0.73250000  0.24000000  1.0
  Al3+  Al2  1  0.23250000  0.12000000  0.05800000  1.0
  Al3+  Al2  1  0.23250000  0.62000000  0.05800000  1.0
  Al3+  Al2  1  0.73250000  0.12000000  0.05800000  1.0
  Al3+  Al2  1  0.73250000  0.62000000  0.05800000  1.0
  Ge4+  Ge1  1  0.28500000  0.19700000  0.80200000  1.0
  Ge4+  Ge1  1  0.28500000  0.69700000  0.80200000  1.0
  Ge4+  Ge1  1  0.78500000  0.19700000  0.80200000  1.0
  Ge4+  Ge1  1  0.78500000  0.69700000  0.80200000  1.0
  Ge4+  Ge1  1  0.19700000  0.40100000  0.57000000  1.0
  Ge4+  Ge1  1  0.19700000  0.90100000  0.57000000  1.0
  Ge4+  Ge1  1  0.69700000  0.40100000  0.57000000  1.0
  Ge4+  Ge1  1  0.69700000  0.90100000  0.57000000  1.0
  Ge4+  Ge1  1  0.40100000  0.28500000  0.39400000  1.0
  Ge4+  Ge1  1  0.40100000  0.78500000  0.39400000  1.0
  Ge4+  Ge1  1  0.90100000  0.28500000  0.39400000  1.0
  Ge4+  Ge1  1  0.90100000  0.78500000  0.39400000  1.0
  Ge4+  Ge2  1  0.14250000  0.43800000  0.10600000  1.0
  Ge4+  Ge2  1  0.14250000  0.93800000  0.10600000  1.0
  Ge4+  Ge2  1  0.64250000  0.43800000  0.10600000  1.0
  Ge4+  Ge2  1  0.64250000  0.93800000  0.10600000  1.0
  Ge4+  Ge2  1  0.43800000  0.05300000  0.28500000  1.0
  Ge4+  Ge2  1  0.43800000  0.55300000  0.28500000  1.0
  Ge4+  Ge2  1  0.93800000  0.05300000  0.28500000  1.0
  Ge4+  Ge2  1  0.93800000  0.55300000  0.28500000  1.0
  Ge4+  Ge2  1  0.05300000  0.14250000  0.87600000  1.0
  Ge4+  Ge2  1  0.05300000  0.64250000  0.87600000  1.0
  Ge4+  Ge2  1  0.55300000  0.14250000  0.87600000  1.0
  Ge4+  Ge2  1  0.55300000  0.64250000  0.87600000  1.0
  O2-  O1  1  0.47250000  0.33850000  0.64200000  1.0
  O2-  O1  1  0.47250000  0.83850000  0.64200000  1.0
  O2-  O1  1  0.97250000  0.33850000  0.64200000  1.0
  O2-  O1  1  0.97250000  0.83850000  0.64200000  1.0
  O2-  O1  1  0.33850000  0.32100000  0.94500000  1.0
  O2-  O1  1  0.33850000  0.82100000  0.94500000  1.0
  O2-  O1  1  0.83850000  0.32100000  0.94500000  1.0
  O2-  O1  1  0.83850000  0.82100000  0.94500000  1.0
  O2-  O1  1  0.32100000  0.47250000  0.67700000  1.0
  O2-  O1  1  0.32100000  0.97250000  0.67700000  1.0
  O2-  O1  1  0.82100000  0.47250000  0.67700000  1.0
  O2-  O1  1  0.82100000  0.97250000  0.67700000  1.0
  O2-  O2  1  0.01450000  0.17050000  0.37500000  1.0
  O2-  O2  1  0.01450000  0.67050000  0.37500000  1.0
  O2-  O2  1  0.51450000  0.17050000  0.37500000  1.0
  O2-  O2  1  0.51450000  0.67050000  0.37500000  1.0
  O2-  O2  1  0.17050000  0.18750000  0.02900000  1.0
  O2-  O2  1  0.17050000  0.68750000  0.02900000  1.0
  O2-  O2  1  0.67050000  0.18750000  0.02900000  1.0
  O2-  O2  1  0.67050000  0.68750000  0.02900000  1.0
  O2-  O2  1  0.18750000  0.01450000  0.34100000  1.0
  O2-  O2  1  0.18750000  0.51450000  0.34100000  1.0
  O2-  O2  1  0.68750000  0.01450000  0.34100000  1.0
  O2-  O2  1  0.68750000  0.51450000  0.34100000  1.0
  O2-  O3  1  0.21450000  0.37850000  0.10500000  1.0
  O2-  O3  1  0.21450000  0.87850000  0.10500000  1.0
  O2-  O3  1  0.71450000  0.37850000  0.10500000  1.0
  O2-  O3  1  0.71450000  0.87850000  0.10500000  1.0
  O2-  O3  1  0.37850000  0.05250000  0.42900000  1.0
  O2-  O3  1  0.37850000  0.55250000  0.42900000  1.0
  O2-  O3  1  0.87850000  0.05250000  0.42900000  1.0
  O2-  O3  1  0.87850000  0.55250000  0.42900000  1.0
  O2-  O3  1  0.05250000  0.21450000  0.75700000  1.0
  O2-  O3  1  0.05250000  0.71450000  0.75700000  1.0
  O2-  O3  1  0.55250000  0.21450000  0.75700000  1.0
  O2-  O3  1  0.55250000  0.71450000  0.75700000  1.0
  O2-  O4  1  0.30000000  0.14400000  0.91700000  1.0
  O2-  O4  1  0.30000000  0.64400000  0.91700000  1.0
  O2-  O4  1  0.80000000  0.14400000  0.91700000  1.0
  O2-  O4  1  0.80000000  0.64400000  0.91700000  1.0
  O2-  O4  1  0.14400000  0.45850000  0.60000000  1.0
  O2-  O4  1  0.14400000  0.95850000  0.60000000  1.0
  O2-  O4  1  0.64400000  0.45850000  0.60000000  1.0
  O2-  O4  1  0.64400000  0.95850000  0.60000000  1.0
  O2-  O4  1  0.45850000  0.30000000  0.28800000  1.0
  O2-  O4  1  0.45850000  0.80000000  0.28800000  1.0
  O2-  O4  1  0.95850000  0.30000000  0.28800000  1.0
  O2-  O4  1  0.95850000  0.80000000  0.28800000  1.0
  O2-  O5  1  0.00950000  0.00250000  0.30600000  1.0
  O2-  O5  1  0.00950000  0.50250000  0.30600000  1.0
  O2-  O5  1  0.50950000  0.00250000  0.30600000  1.0
  O2-  O5  1  0.50950000  0.50250000  0.30600000  1.0
  O2-  O5  1  0.00250000  0.15300000  0.01900000  1.0
  O2-  O5  1  0.00250000  0.65300000  0.01900000  1.0
  O2-  O5  1  0.50250000  0.15300000  0.01900000  1.0
  O2-  O5  1  0.50250000  0.65300000  0.01900000  1.0
  O2-  O5  1  0.15300000  0.00950000  0.00500000  1.0
  O2-  O5  1  0.15300000  0.50950000  0.00500000  1.0
  O2-  O5  1  0.65300000  0.00950000  0.00500000  1.0
  O2-  O5  1  0.65300000  0.50950000  0.00500000  1.0
  O2-  O6  1  0.01250000  0.03300000  0.72300000  1.0
  O2-  O6  1  0.01250000  0.53300000  0.72300000  1.0
  O2-  O6  1  0.51250000  0.03300000  0.72300000  1.0
  O2-  O6  1  0.51250000  0.53300000  0.72300000  1.0
  O2-  O6  1  0.03300000  0.36150000  0.02500000  1.0
  O2-  O6  1  0.03300000  0.86150000  0.02500000  1.0
  O2-  O6  1  0.53300000  0.36150000  0.02500000  1.0
  O2-  O6  1  0.53300000  0.86150000  0.02500000  1.0
  O2-  O6  1  0.36150000  0.01250000  0.06600000  1.0
  O2-  O6  1  0.36150000  0.51250000  0.06600000  1.0
  O2-  O6  1  0.86150000  0.01250000  0.06600000  1.0
  O2-  O6  1  0.86150000  0.51250000  0.06600000  1.0
  O2-  O7  1  0.15350000  0.30650000  0.36500000  1.0
  O2-  O7  1  0.15350000  0.80650000  0.36500000  1.0
  O2-  O7  1  0.65350000  0.30650000  0.36500000  1.0
  O2-  O7  1  0.65350000  0.80650000  0.36500000  1.0
  O2-  O7  1  0.30650000  0.18250000  0.30700000  1.0
  O2-  O7  1  0.30650000  0.68250000  0.30700000  1.0
  O2-  O7  1  0.80650000  0.18250000  0.30700000  1.0
  O2-  O7  1  0.80650000  0.68250000  0.30700000  1.0
  O2-  O7  1  0.18250000  0.15350000  0.61300000  1.0
  O2-  O7  1  0.18250000  0.65350000  0.61300000  1.0
  O2-  O7  1  0.68250000  0.15350000  0.61300000  1.0
  O2-  O7  1  0.68250000  0.65350000  0.61300000  1.0
  O2-  O8  1  0.36800000  0.19050000  0.71200000  1.0
  O2-  O8  1  0.36800000  0.69050000  0.71200000  1.0
  O2-  O8  1  0.86800000  0.19050000  0.71200000  1.0
  O2-  O8  1  0.86800000  0.69050000  0.71200000  1.0
  O2-  O8  1  0.19050000  0.35600000  0.73600000  1.0
  O2-  O8  1  0.19050000  0.85600000  0.73600000  1.0
  O2-  O8  1  0.69050000  0.35600000  0.73600000  1.0
  O2-  O8  1  0.69050000  0.85600000  0.73600000  1.0
  O2-  O8  1  0.35600000  0.36800000  0.38100000  1.0
  O2-  O8  1  0.35600000  0.86800000  0.38100000  1.0
  O2-  O8  1  0.85600000  0.36800000  0.38100000  1.0
  O2-  O8  1  0.85600000  0.86800000  0.38100000  1.0
