# generated using pymatgen
data_Li13Zr2(InCl10)3
_symmetry_space_group_name_H-M   'P 1'
_cell_length_a   12.81700000
_cell_length_b   31.81425000
_cell_length_c   11.09740000
_cell_angle_alpha   90.00000000
_cell_angle_beta   90.00000000
_cell_angle_gamma   70.28800000
_symmetry_Int_Tables_number   1
_chemical_formula_structural   Li13Zr2(InCl10)3
_chemical_formula_sum   'Li52 Zr8 In12 Cl120'
_cell_volume   4259.93990481
_cell_formula_units_Z   4
loop_
 _symmetry_equiv_pos_site_id
 _symmetry_equiv_pos_as_xyz
  1  'x, y, z'
loop_
 _atom_type_symbol
 _atom_type_oxidation_number
  Li+  1.0
  Zr4+  4.0
  In3+  3.0
  Cl-  -1.0
loop_
 _atom_site_type_symbol
 _atom_site_label
 _atom_site_symmetry_multiplicity
 _atom_site_fract_x
 _atom_site_fract_y
 _atom_site_fract_z
 _atom_site_occupancy
  Li+  Li0  1  0.00000000  0.70000000  0.52900000  1.0
  Li+  Li1  1  0.50000000  0.70000000  0.52900000  1.0
  Li+  Li2  1  0.00008359  0.09708631  0.52519031  1.0
  Li+  Li3  1  0.50000000  0.10000000  0.52900000  1.0
  Li+  Li4  1  0.00343234  0.50476890  0.96783151  1.0
  Li+  Li5  1  0.50223465  0.49782022  0.97612264  1.0
  Li+  Li6  1  0.25000000  0.10000000  0.02900000  1.0
  Li+  Li7  1  0.74902247  0.09919202  0.03248422  1.0
  Li+  Li8  1  0.25000000  0.50000000  0.47100000  1.0
  Li+  Li9  1  0.75100629  0.49944287  0.46958603  1.0
  Li+  Li10  1  0.25038862  0.30242990  0.46783884  1.0
  Li+  Li11  1  0.74974987  0.29667668  0.47319707  1.0
  Li+  Li12  1  0.25000000  0.50000000  0.75000000  1.0
  Li+  Li13  1  0.74913553  0.50420422  0.75213667  1.0
  Li+  Li14  1  0.25063989  0.29789909  0.75285542  1.0
  Li+  Li15  1  0.74609289  0.30128545  0.75201783  1.0
  Li+  Li16  1  0.99505037  0.69926723  0.25457931  1.0
  Li+  Li17  1  0.50028356  0.69684888  0.24693126  1.0
  Li+  Li18  1  0.00000000  0.10000000  0.25000000  1.0
  Li+  Li19  1  0.50000000  0.10000000  0.25000000  1.0
  Li+  Li20  1  0.99825870  0.00158716  0.42857297  1.0
  Li+  Li21  1  0.50188019  0.99989790  0.42411318  1.0
  Li+  Li22  1  0.00000000  0.80000000  0.42500000  1.0
  Li+  Li23  1  0.50000000  0.80000000  0.42500000  1.0
  Li+  Li24  1  0.00000000  0.60000000  0.42500000  1.0
  Li+  Li25  1  0.50000000  0.60000000  0.42500000  1.0
  Li+  Li26  1  0.00000000  0.20000000  0.42500000  1.0
  Li+  Li27  1  0.50000000  0.20000000  0.42500000  1.0
  Li+  Li28  1  0.00000000  0.00000000  0.07500000  1.0
  Li+  Li29  1  0.50037001  0.00141978  0.07592409  1.0
  Li+  Li30  1  0.00000000  0.80000000  0.07500000  1.0
  Li+  Li31  1  0.50229297  0.80105129  0.07397515  1.0
  Li+  Li32  1  0.25000000  0.00000000  0.92500000  1.0
  Li+  Li33  1  0.75000000  0.00000000  0.92500000  1.0
  Li+  Li34  1  0.25000000  0.80000000  0.92500000  1.0
  Li+  Li35  1  0.75000000  0.80000000  0.92500000  1.0
  Li+  Li36  1  0.25000000  0.60000000  0.92500000  1.0
  Li+  Li37  1  0.74998612  0.60071839  0.92261108  1.0
  Li+  Li38  1  0.25000000  0.40000000  0.92500000  1.0
  Li+  Li39  1  0.75000000  0.40000000  0.92500000  1.0
  Li+  Li40  1  0.25000000  0.20000000  0.92500000  1.0
  Li+  Li41  1  0.75000000  0.20000000  0.92500000  1.0
  Li+  Li42  1  0.25000000  0.00000000  0.57500000  1.0
  Li+  Li43  1  0.75000000  0.00000000  0.57500000  1.0
  Li+  Li44  1  0.25000000  0.80000000  0.57500000  1.0
  Li+  Li45  1  0.74572775  0.80348582  0.57420614  1.0
  Li+  Li46  1  0.25000000  0.60000000  0.57500000  1.0
  Li+  Li47  1  0.75000000  0.60000000  0.57500000  1.0
  Li+  Li48  1  0.25000000  0.40000000  0.57500000  1.0
  Li+  Li49  1  0.75000000  0.40000000  0.57500000  1.0
  Li+  Li50  1  0.25435148  0.20122754  0.56979313  1.0
  Li+  Li51  1  0.75000000  0.20000000  0.57500000  1.0
  Zr4+  Zr52  1  0.00000000  0.40000000  0.42500000  1.0
  Zr4+  Zr53  1  0.50000000  0.40000000  0.42500000  1.0
  Zr4+  Zr54  1  0.00000000  0.00000000  0.75000000  1.0
  Zr4+  Zr55  1  0.50000000  0.00000000  0.75000000  1.0
  Zr4+  Zr56  1  0.00171733  0.19823832  0.75016265  1.0
  Zr4+  Zr57  1  0.49921529  0.20404542  0.74814602  1.0
  Zr4+  Zr58  1  0.25000000  0.80000000  0.25000000  1.0
  Zr4+  Zr59  1  0.75000000  0.80000000  0.25000000  1.0
  In3+  In60  1  0.00000000  0.60000000  0.07500000  1.0
  In3+  In61  1  0.50000000  0.60000000  0.07500000  1.0
  In3+  In62  1  0.00000000  0.20000000  0.07500000  1.0
  In3+  In63  1  0.50000000  0.20000000  0.07500000  1.0
  In3+  In64  1  0.00000000  0.80000000  0.75000000  1.0
  In3+  In65  1  0.50335141  0.79735568  0.74455957  1.0
  In3+  In66  1  0.25000000  0.00000000  0.25000000  1.0
  In3+  In67  1  0.75000000  0.00000000  0.25000000  1.0
  In3+  In68  1  0.25000000  0.60000000  0.25000000  1.0
  In3+  In69  1  0.75000000  0.60000000  0.25000000  1.0
  In3+  In70  1  0.25000000  0.40000000  0.25000000  1.0
  In3+  In71  1  0.75000000  0.40000000  0.25000000  1.0
  Cl-  Cl72  1  0.12105000  0.84785400  0.75000000  1.0
  Cl-  Cl73  1  0.61770675  0.84943777  0.75189325  1.0
  Cl-  Cl74  1  0.12105000  0.64785400  0.75000000  1.0
  Cl-  Cl75  1  0.62283581  0.64923506  0.74887919  1.0
  Cl-  Cl76  1  0.12105000  0.44785400  0.75000000  1.0
  Cl-  Cl77  1  0.62105000  0.44785400  0.75000000  1.0
  Cl-  Cl78  1  0.12193706  0.24726100  0.74762991  1.0
  Cl-  Cl79  1  0.62105000  0.24785400  0.75000000  1.0
  Cl-  Cl80  1  0.12105000  0.04785400  0.75000000  1.0
  Cl-  Cl81  1  0.62105000  0.04785400  0.75000000  1.0
  Cl-  Cl82  1  0.37895000  0.95214600  0.75000000  1.0
  Cl-  Cl83  1  0.87895000  0.95214600  0.75000000  1.0
  Cl-  Cl84  1  0.38015161  0.75115735  0.75661871  1.0
  Cl-  Cl85  1  0.87895000  0.75214600  0.75000000  1.0
  Cl-  Cl86  1  0.37578442  0.55486750  0.74961734  1.0
  Cl-  Cl87  1  0.87895000  0.55214600  0.75000000  1.0
  Cl-  Cl88  1  0.37895000  0.35214600  0.75000000  1.0
  Cl-  Cl89  1  0.88076003  0.35403395  0.75078785  1.0
  Cl-  Cl90  1  0.37895000  0.15214600  0.75000000  1.0
  Cl-  Cl91  1  0.87895000  0.15214600  0.75000000  1.0
  Cl-  Cl92  1  0.37105000  0.84785400  0.25000000  1.0
  Cl-  Cl93  1  0.87112951  0.84442036  0.24833459  1.0
  Cl-  Cl94  1  0.37105000  0.64785400  0.25000000  1.0
  Cl-  Cl95  1  0.87012017  0.64779654  0.24968843  1.0
  Cl-  Cl96  1  0.37105000  0.44785400  0.25000000  1.0
  Cl-  Cl97  1  0.87105000  0.44785400  0.25000000  1.0
  Cl-  Cl98  1  0.37105000  0.24785400  0.25000000  1.0
  Cl-  Cl99  1  0.87105000  0.24785400  0.25000000  1.0
  Cl-  Cl100  1  0.37105000  0.04785400  0.25000000  1.0
  Cl-  Cl101  1  0.87105000  0.04785400  0.25000000  1.0
  Cl-  Cl102  1  0.12895000  0.95214600  0.25000000  1.0
  Cl-  Cl103  1  0.62895000  0.95214600  0.25000000  1.0
  Cl-  Cl104  1  0.12895000  0.75214600  0.25000000  1.0
  Cl-  Cl105  1  0.62895000  0.75214600  0.25000000  1.0
  Cl-  Cl106  1  0.12909241  0.55332088  0.25052228  1.0
  Cl-  Cl107  1  0.62895000  0.55214600  0.25000000  1.0
  Cl-  Cl108  1  0.12895000  0.35214600  0.25000000  1.0
  Cl-  Cl109  1  0.62895000  0.35214600  0.25000000  1.0
  Cl-  Cl110  1  0.12895000  0.15214600  0.25000000  1.0
  Cl-  Cl111  1  0.62895000  0.15214600  0.25000000  1.0
  Cl-  Cl112  1  0.12425000  0.95272000  0.58760000  1.0
  Cl-  Cl113  1  0.62425000  0.95272000  0.58760000  1.0
  Cl-  Cl114  1  0.12425000  0.75272000  0.58760000  1.0
  Cl-  Cl115  1  0.62425000  0.75272000  0.58760000  1.0
  Cl-  Cl116  1  0.12236872  0.55183460  0.58683196  1.0
  Cl-  Cl117  1  0.62425000  0.55272000  0.58760000  1.0
  Cl-  Cl118  1  0.12425000  0.35272000  0.58760000  1.0
  Cl-  Cl119  1  0.62425000  0.35272000  0.58760000  1.0
  Cl-  Cl120  1  0.12463159  0.15129225  0.58764171  1.0
  Cl-  Cl121  1  0.62452017  0.15080907  0.59026504  1.0
  Cl-  Cl122  1  0.37529181  0.84667266  0.91291489  1.0
  Cl-  Cl123  1  0.87575000  0.84728000  0.91240000  1.0
  Cl-  Cl124  1  0.37575000  0.64728000  0.91240000  1.0
  Cl-  Cl125  1  0.87029423  0.65320025  0.91497832  1.0
  Cl-  Cl126  1  0.37575000  0.44728000  0.91240000  1.0
  Cl-  Cl127  1  0.87490746  0.44573388  0.90714364  1.0
  Cl-  Cl128  1  0.37575000  0.24728000  0.91240000  1.0
  Cl-  Cl129  1  0.87219042  0.24501854  0.91294910  1.0
  Cl-  Cl130  1  0.37575000  0.04728000  0.91240000  1.0
  Cl-  Cl131  1  0.87575000  0.04728000  0.91240000  1.0
  Cl-  Cl132  1  0.37947529  0.84906561  0.58982125  1.0
  Cl-  Cl133  1  0.87087597  0.85101852  0.58689568  1.0
  Cl-  Cl134  1  0.37575000  0.64728000  0.58760000  1.0
  Cl-  Cl135  1  0.87817159  0.64833668  0.58614796  1.0
  Cl-  Cl136  1  0.37575000  0.44728000  0.58760000  1.0
  Cl-  Cl137  1  0.87508811  0.44672619  0.58794815  1.0
  Cl-  Cl138  1  0.37575000  0.24728000  0.58760000  1.0
  Cl-  Cl139  1  0.87575000  0.24728000  0.58760000  1.0
  Cl-  Cl140  1  0.37575000  0.04728000  0.58760000  1.0
  Cl-  Cl141  1  0.87575000  0.04728000  0.58760000  1.0
  Cl-  Cl142  1  0.12425000  0.95272000  0.91240000  1.0
  Cl-  Cl143  1  0.62425000  0.95272000  0.91240000  1.0
  Cl-  Cl144  1  0.12425000  0.75272000  0.91240000  1.0
  Cl-  Cl145  1  0.62425000  0.75272000  0.91240000  1.0
  Cl-  Cl146  1  0.12425000  0.55272000  0.91240000  1.0
  Cl-  Cl147  1  0.62447118  0.55401289  0.91477852  1.0
  Cl-  Cl148  1  0.12425000  0.35272000  0.91240000  1.0
  Cl-  Cl149  1  0.62425000  0.35272000  0.91240000  1.0
  Cl-  Cl150  1  0.12425000  0.15272000  0.91240000  1.0
  Cl-  Cl151  1  0.62425000  0.15272000  0.91240000  1.0
  Cl-  Cl152  1  0.37425000  0.95272000  0.08760000  1.0
  Cl-  Cl153  1  0.87425000  0.95272000  0.08760000  1.0
  Cl-  Cl154  1  0.37425000  0.75272000  0.08760000  1.0
  Cl-  Cl155  1  0.87425000  0.75272000  0.08760000  1.0
  Cl-  Cl156  1  0.37425000  0.55272000  0.08760000  1.0
  Cl-  Cl157  1  0.87425000  0.55272000  0.08760000  1.0
  Cl-  Cl158  1  0.37425000  0.35272000  0.08760000  1.0
  Cl-  Cl159  1  0.87386061  0.35610230  0.08755830  1.0
  Cl-  Cl160  1  0.37425000  0.15272000  0.08760000  1.0
  Cl-  Cl161  1  0.87425000  0.15272000  0.08760000  1.0
  Cl-  Cl162  1  0.12635568  0.84713458  0.41079015  1.0
  Cl-  Cl163  1  0.62575000  0.84728000  0.41240000  1.0
  Cl-  Cl164  1  0.12575000  0.64728000  0.41240000  1.0
  Cl-  Cl165  1  0.62695355  0.64353839  0.41126519  1.0
  Cl-  Cl166  1  0.12575000  0.44728000  0.41240000  1.0
  Cl-  Cl167  1  0.62575000  0.44728000  0.41240000  1.0
  Cl-  Cl168  1  0.12575000  0.24728000  0.41240000  1.0
  Cl-  Cl169  1  0.62575000  0.24728000  0.41240000  1.0
  Cl-  Cl170  1  0.12575000  0.04728000  0.41240000  1.0
  Cl-  Cl171  1  0.62575000  0.04728000  0.41240000  1.0
  Cl-  Cl172  1  0.12575000  0.84728000  0.08760000  1.0
  Cl-  Cl173  1  0.62575000  0.84728000  0.08760000  1.0
  Cl-  Cl174  1  0.12575000  0.64728000  0.08760000  1.0
  Cl-  Cl175  1  0.62575000  0.64728000  0.08760000  1.0
  Cl-  Cl176  1  0.12575000  0.44728000  0.08760000  1.0
  Cl-  Cl177  1  0.62825236  0.44737429  0.08710041  1.0
  Cl-  Cl178  1  0.12575000  0.24728000  0.08760000  1.0
  Cl-  Cl179  1  0.62575000  0.24728000  0.08760000  1.0
  Cl-  Cl180  1  0.12575000  0.04728000  0.08760000  1.0
  Cl-  Cl181  1  0.62575000  0.04728000  0.08760000  1.0
  Cl-  Cl182  1  0.37354516  0.95118271  0.41914107  1.0
  Cl-  Cl183  1  0.87425000  0.95272000  0.41240000  1.0
  Cl-  Cl184  1  0.37425000  0.75272000  0.41240000  1.0
  Cl-  Cl185  1  0.87425000  0.75272000  0.41240000  1.0
  Cl-  Cl186  1  0.37425000  0.55272000  0.41240000  1.0
  Cl-  Cl187  1  0.87425000  0.55272000  0.41240000  1.0
  Cl-  Cl188  1  0.37425000  0.35272000  0.41240000  1.0
  Cl-  Cl189  1  0.87425000  0.35272000  0.41240000  1.0
  Cl-  Cl190  1  0.37425000  0.15272000  0.41240000  1.0
  Cl-  Cl191  1  0.87425000  0.15272000  0.41240000  1.0
