# generated using pymatgen
data_Li13Zr2(InCl10)3
_symmetry_space_group_name_H-M   'P 1'
_cell_length_a   11.20427204
_cell_length_b   12.94043242
_cell_length_c   32.12063292
_cell_angle_alpha   70.28800000
_cell_angle_beta   90.00000000
_cell_angle_gamma   90.00000000
_symmetry_Int_Tables_number   1
_chemical_formula_structural   Li13Zr2(InCl10)3
_chemical_formula_sum   'Li52 Zr8 In12 Cl120'
_cell_volume   4384.20332127
_cell_formula_units_Z   4
loop_
 _symmetry_equiv_pos_site_id
 _symmetry_equiv_pos_as_xyz
  1  'x, y, z'
loop_
 _atom_type_symbol
 _atom_type_oxidation_number
  Li+  1.0
  Zr4+  4.0
  In3+  3.0
  Cl-  -1.0
loop_
 _atom_site_type_symbol
 _atom_site_label
 _atom_site_symmetry_multiplicity
 _atom_site_fract_x
 _atom_site_fract_y
 _atom_site_fract_z
 _atom_site_occupancy
  Li+  Li0  1  0.77900000  0.66666667  0.30000000  1.0
  Li+  Li1  1  0.77900000  0.16666667  0.30000000  1.0
  Li+  Li2  1  0.77900000  0.66666667  0.90000000  1.0
  Li+  Li3  1  0.77900000  0.16666667  0.90000000  1.0
  Li+  Li4  1  0.22100000  0.66666667  0.50000000  1.0
  Li+  Li5  1  0.22100000  0.16666667  0.50000000  1.0
  Li+  Li6  1  0.27900000  0.41666667  0.90000000  1.0
  Li+  Li7  1  0.27900000  0.91666667  0.90000000  1.0
  Li+  Li8  1  0.72100000  0.41666667  0.50000000  1.0
  Li+  Li9  1  0.72100000  0.91666667  0.50000000  1.0
  Li+  Li10  1  0.72100000  0.41666667  0.70000000  1.0
  Li+  Li11  1  0.72100000  0.91666667  0.70000000  1.0
  Li+  Li12  1  0.00000000  0.41666667  0.50000000  1.0
  Li+  Li13  1  0.00000000  0.91666667  0.50000000  1.0
  Li+  Li14  1  0.00000000  0.41666667  0.70000000  1.0
  Li+  Li15  1  0.00000000  0.91666667  0.70000000  1.0
  Li+  Li16  1  0.50000000  0.66666667  0.30000000  1.0
  Li+  Li17  1  0.50000000  0.16666667  0.30000000  1.0
  Li+  Li18  1  0.50000000  0.66666667  0.90000000  1.0
  Li+  Li19  1  0.50000000  0.16666667  0.90000000  1.0
  Li+  Li20  1  0.67500000  0.66666667  0.00000000  1.0
  Li+  Li21  1  0.67500000  0.16666667  0.00000000  1.0
  Li+  Li22  1  0.67500000  0.66666667  0.20000000  1.0
  Li+  Li23  1  0.67500000  0.16666667  0.20000000  1.0
  Li+  Li24  1  0.67500000  0.66666667  0.40000000  1.0
  Li+  Li25  1  0.67500000  0.16666667  0.40000000  1.0
  Li+  Li26  1  0.67500000  0.66666667  0.80000000  1.0
  Li+  Li27  1  0.67500000  0.16666667  0.80000000  1.0
  Li+  Li28  1  0.32500000  0.66666667  0.00000000  1.0
  Li+  Li29  1  0.32500000  0.16666667  0.00000000  1.0
  Li+  Li30  1  0.32500000  0.66666667  0.20000000  1.0
  Li+  Li31  1  0.32500000  0.16666667  0.20000000  1.0
  Li+  Li32  1  0.17500000  0.41666667  0.00000000  1.0
  Li+  Li33  1  0.17500000  0.91666667  0.00000000  1.0
  Li+  Li34  1  0.17500000  0.41666667  0.20000000  1.0
  Li+  Li35  1  0.17500000  0.91666667  0.20000000  1.0
  Li+  Li36  1  0.17500000  0.41666667  0.40000000  1.0
  Li+  Li37  1  0.17500000  0.91666667  0.40000000  1.0
  Li+  Li38  1  0.17500000  0.41666667  0.60000000  1.0
  Li+  Li39  1  0.17500000  0.91666667  0.60000000  1.0
  Li+  Li40  1  0.17500000  0.41666667  0.80000000  1.0
  Li+  Li41  1  0.17500000  0.91666667  0.80000000  1.0
  Li+  Li42  1  0.82500000  0.41666667  0.00000000  1.0
  Li+  Li43  1  0.82500000  0.91666667  0.00000000  1.0
  Li+  Li44  1  0.82500000  0.41666667  0.20000000  1.0
  Li+  Li45  1  0.82500000  0.91666667  0.20000000  1.0
  Li+  Li46  1  0.82500000  0.41666667  0.40000000  1.0
  Li+  Li47  1  0.82500000  0.91666667  0.40000000  1.0
  Li+  Li48  1  0.82500000  0.41666667  0.60000000  1.0
  Li+  Li49  1  0.82500000  0.91666667  0.60000000  1.0
  Li+  Li50  1  0.82500000  0.41666667  0.80000000  1.0
  Li+  Li51  1  0.82500000  0.91666667  0.80000000  1.0
  Zr4+  Zr52  1  0.67500000  0.66666667  0.60000000  1.0
  Zr4+  Zr53  1  0.67500000  0.16666667  0.60000000  1.0
  Zr4+  Zr54  1  0.00000000  0.66666667  0.00000000  1.0
  Zr4+  Zr55  1  0.00000000  0.16666667  0.00000000  1.0
  Zr4+  Zr56  1  0.00000000  0.66666667  0.80000000  1.0
  Zr4+  Zr57  1  0.00000000  0.16666667  0.80000000  1.0
  Zr4+  Zr58  1  0.50000000  0.41666667  0.20000000  1.0
  Zr4+  Zr59  1  0.50000000  0.91666667  0.20000000  1.0
  In3+  In60  1  0.32500000  0.66666667  0.40000000  1.0
  In3+  In61  1  0.32500000  0.16666667  0.40000000  1.0
  In3+  In62  1  0.32500000  0.66666667  0.80000000  1.0
  In3+  In63  1  0.32500000  0.16666667  0.80000000  1.0
  In3+  In64  1  0.00000000  0.66666667  0.20000000  1.0
  In3+  In65  1  0.00000000  0.16666667  0.20000000  1.0
  In3+  In66  1  0.50000000  0.41666667  0.00000000  1.0
  In3+  In67  1  0.50000000  0.91666667  0.00000000  1.0
  In3+  In68  1  0.50000000  0.41666667  0.40000000  1.0
  In3+  In69  1  0.50000000  0.91666667  0.40000000  1.0
  In3+  In70  1  0.50000000  0.41666667  0.60000000  1.0
  In3+  In71  1  0.50000000  0.91666667  0.60000000  1.0
  Cl-  Cl72  1  0.00000000  0.54561667  0.15214600  1.0
  Cl-  Cl73  1  0.00000000  0.04561667  0.15214600  1.0
  Cl-  Cl74  1  0.00000000  0.54561667  0.35214600  1.0
  Cl-  Cl75  1  0.00000000  0.04561667  0.35214600  1.0
  Cl-  Cl76  1  0.00000000  0.54561667  0.55214600  1.0
  Cl-  Cl77  1  0.00000000  0.04561667  0.55214600  1.0
  Cl-  Cl78  1  0.00000000  0.54561667  0.75214600  1.0
  Cl-  Cl79  1  0.00000000  0.04561667  0.75214600  1.0
  Cl-  Cl80  1  0.00000000  0.54561667  0.95214600  1.0
  Cl-  Cl81  1  0.00000000  0.04561667  0.95214600  1.0
  Cl-  Cl82  1  0.00000000  0.28771667  0.04785400  1.0
  Cl-  Cl83  1  0.00000000  0.78771667  0.04785400  1.0
  Cl-  Cl84  1  0.00000000  0.28771667  0.24785400  1.0
  Cl-  Cl85  1  0.00000000  0.78771667  0.24785400  1.0
  Cl-  Cl86  1  0.00000000  0.28771667  0.44785400  1.0
  Cl-  Cl87  1  0.00000000  0.78771667  0.44785400  1.0
  Cl-  Cl88  1  0.00000000  0.28771667  0.64785400  1.0
  Cl-  Cl89  1  0.00000000  0.78771667  0.64785400  1.0
  Cl-  Cl90  1  0.00000000  0.28771667  0.84785400  1.0
  Cl-  Cl91  1  0.00000000  0.78771667  0.84785400  1.0
  Cl-  Cl92  1  0.50000000  0.29561667  0.15214600  1.0
  Cl-  Cl93  1  0.50000000  0.79561667  0.15214600  1.0
  Cl-  Cl94  1  0.50000000  0.29561667  0.35214600  1.0
  Cl-  Cl95  1  0.50000000  0.79561667  0.35214600  1.0
  Cl-  Cl96  1  0.50000000  0.29561667  0.55214600  1.0
  Cl-  Cl97  1  0.50000000  0.79561667  0.55214600  1.0
  Cl-  Cl98  1  0.50000000  0.29561667  0.75214600  1.0
  Cl-  Cl99  1  0.50000000  0.79561667  0.75214600  1.0
  Cl-  Cl100  1  0.50000000  0.29561667  0.95214600  1.0
  Cl-  Cl101  1  0.50000000  0.79561667  0.95214600  1.0
  Cl-  Cl102  1  0.50000000  0.53771667  0.04785400  1.0
  Cl-  Cl103  1  0.50000000  0.03771667  0.04785400  1.0
  Cl-  Cl104  1  0.50000000  0.53771667  0.24785400  1.0
  Cl-  Cl105  1  0.50000000  0.03771667  0.24785400  1.0
  Cl-  Cl106  1  0.50000000  0.53771667  0.44785400  1.0
  Cl-  Cl107  1  0.50000000  0.03771667  0.44785400  1.0
  Cl-  Cl108  1  0.50000000  0.53771667  0.64785400  1.0
  Cl-  Cl109  1  0.50000000  0.03771667  0.64785400  1.0
  Cl-  Cl110  1  0.50000000  0.53771667  0.84785400  1.0
  Cl-  Cl111  1  0.50000000  0.03771667  0.84785400  1.0
  Cl-  Cl112  1  0.83760000  0.54241667  0.04728000  1.0
  Cl-  Cl113  1  0.83760000  0.04241667  0.04728000  1.0
  Cl-  Cl114  1  0.83760000  0.54241667  0.24728000  1.0
  Cl-  Cl115  1  0.83760000  0.04241667  0.24728000  1.0
  Cl-  Cl116  1  0.83760000  0.54241667  0.44728000  1.0
  Cl-  Cl117  1  0.83760000  0.04241667  0.44728000  1.0
  Cl-  Cl118  1  0.83760000  0.54241667  0.64728000  1.0
  Cl-  Cl119  1  0.83760000  0.04241667  0.64728000  1.0
  Cl-  Cl120  1  0.83760000  0.54241667  0.84728000  1.0
  Cl-  Cl121  1  0.83760000  0.04241667  0.84728000  1.0
  Cl-  Cl122  1  0.16240000  0.29091667  0.15272000  1.0
  Cl-  Cl123  1  0.16240000  0.79091667  0.15272000  1.0
  Cl-  Cl124  1  0.16240000  0.29091667  0.35272000  1.0
  Cl-  Cl125  1  0.16240000  0.79091667  0.35272000  1.0
  Cl-  Cl126  1  0.16240000  0.29091667  0.55272000  1.0
  Cl-  Cl127  1  0.16240000  0.79091667  0.55272000  1.0
  Cl-  Cl128  1  0.16240000  0.29091667  0.75272000  1.0
  Cl-  Cl129  1  0.16240000  0.79091667  0.75272000  1.0
  Cl-  Cl130  1  0.16240000  0.29091667  0.95272000  1.0
  Cl-  Cl131  1  0.16240000  0.79091667  0.95272000  1.0
  Cl-  Cl132  1  0.83760000  0.29091667  0.15272000  1.0
  Cl-  Cl133  1  0.83760000  0.79091667  0.15272000  1.0
  Cl-  Cl134  1  0.83760000  0.29091667  0.35272000  1.0
  Cl-  Cl135  1  0.83760000  0.79091667  0.35272000  1.0
  Cl-  Cl136  1  0.83760000  0.29091667  0.55272000  1.0
  Cl-  Cl137  1  0.83760000  0.79091667  0.55272000  1.0
  Cl-  Cl138  1  0.83760000  0.29091667  0.75272000  1.0
  Cl-  Cl139  1  0.83760000  0.79091667  0.75272000  1.0
  Cl-  Cl140  1  0.83760000  0.29091667  0.95272000  1.0
  Cl-  Cl141  1  0.83760000  0.79091667  0.95272000  1.0
  Cl-  Cl142  1  0.16240000  0.54241667  0.04728000  1.0
  Cl-  Cl143  1  0.16240000  0.04241667  0.04728000  1.0
  Cl-  Cl144  1  0.16240000  0.54241667  0.24728000  1.0
  Cl-  Cl145  1  0.16240000  0.04241667  0.24728000  1.0
  Cl-  Cl146  1  0.16240000  0.54241667  0.44728000  1.0
  Cl-  Cl147  1  0.16240000  0.04241667  0.44728000  1.0
  Cl-  Cl148  1  0.16240000  0.54241667  0.64728000  1.0
  Cl-  Cl149  1  0.16240000  0.04241667  0.64728000  1.0
  Cl-  Cl150  1  0.16240000  0.54241667  0.84728000  1.0
  Cl-  Cl151  1  0.16240000  0.04241667  0.84728000  1.0
  Cl-  Cl152  1  0.33760000  0.29241667  0.04728000  1.0
  Cl-  Cl153  1  0.33760000  0.79241667  0.04728000  1.0
  Cl-  Cl154  1  0.33760000  0.29241667  0.24728000  1.0
  Cl-  Cl155  1  0.33760000  0.79241667  0.24728000  1.0
  Cl-  Cl156  1  0.33760000  0.29241667  0.44728000  1.0
  Cl-  Cl157  1  0.33760000  0.79241667  0.44728000  1.0
  Cl-  Cl158  1  0.33760000  0.29241667  0.64728000  1.0
  Cl-  Cl159  1  0.33760000  0.79241667  0.64728000  1.0
  Cl-  Cl160  1  0.33760000  0.29241667  0.84728000  1.0
  Cl-  Cl161  1  0.33760000  0.79241667  0.84728000  1.0
  Cl-  Cl162  1  0.66240000  0.54091667  0.15272000  1.0
  Cl-  Cl163  1  0.66240000  0.04091667  0.15272000  1.0
  Cl-  Cl164  1  0.66240000  0.54091667  0.35272000  1.0
  Cl-  Cl165  1  0.66240000  0.04091667  0.35272000  1.0
  Cl-  Cl166  1  0.66240000  0.54091667  0.55272000  1.0
  Cl-  Cl167  1  0.66240000  0.04091667  0.55272000  1.0
  Cl-  Cl168  1  0.66240000  0.54091667  0.75272000  1.0
  Cl-  Cl169  1  0.66240000  0.04091667  0.75272000  1.0
  Cl-  Cl170  1  0.66240000  0.54091667  0.95272000  1.0
  Cl-  Cl171  1  0.66240000  0.04091667  0.95272000  1.0
  Cl-  Cl172  1  0.33760000  0.54091667  0.15272000  1.0
  Cl-  Cl173  1  0.33760000  0.04091667  0.15272000  1.0
  Cl-  Cl174  1  0.33760000  0.54091667  0.35272000  1.0
  Cl-  Cl175  1  0.33760000  0.04091667  0.35272000  1.0
  Cl-  Cl176  1  0.33760000  0.54091667  0.55272000  1.0
  Cl-  Cl177  1  0.33760000  0.04091667  0.55272000  1.0
  Cl-  Cl178  1  0.33760000  0.54091667  0.75272000  1.0
  Cl-  Cl179  1  0.33760000  0.04091667  0.75272000  1.0
  Cl-  Cl180  1  0.33760000  0.54091667  0.95272000  1.0
  Cl-  Cl181  1  0.33760000  0.04091667  0.95272000  1.0
  Cl-  Cl182  1  0.66240000  0.29241667  0.04728000  1.0
  Cl-  Cl183  1  0.66240000  0.79241667  0.04728000  1.0
  Cl-  Cl184  1  0.66240000  0.29241667  0.24728000  1.0
  Cl-  Cl185  1  0.66240000  0.79241667  0.24728000  1.0
  Cl-  Cl186  1  0.66240000  0.29241667  0.44728000  1.0
  Cl-  Cl187  1  0.66240000  0.79241667  0.44728000  1.0
  Cl-  Cl188  1  0.66240000  0.29241667  0.64728000  1.0
  Cl-  Cl189  1  0.66240000  0.79241667  0.64728000  1.0
  Cl-  Cl190  1  0.66240000  0.29241667  0.84728000  1.0
  Cl-  Cl191  1  0.66240000  0.79241667  0.84728000  1.0
