# generated using pymatgen
data_Li13Zr2(InCl10)3
_symmetry_space_group_name_H-M   'P 1'
_cell_length_a   12.81700000
_cell_length_b   11.09740000
_cell_length_c   31.81425000
_cell_angle_alpha   90.00000000
_cell_angle_beta   109.71200000
_cell_angle_gamma   90.00000000
_symmetry_Int_Tables_number   1
_chemical_formula_structural   Li13Zr2(InCl10)3
_chemical_formula_sum   'Li52 Zr8 In12 Cl120'
_cell_volume   4259.93990481
_cell_formula_units_Z   4
loop_
 _symmetry_equiv_pos_site_id
 _symmetry_equiv_pos_as_xyz
  1  'x, y, z'
loop_
 _atom_type_symbol
 _atom_type_oxidation_number
  Li+  1.0
  Zr4+  4.0
  In3+  3.0
  Cl-  -1.0
loop_
 _atom_site_type_symbol
 _atom_site_label
 _atom_site_symmetry_multiplicity
 _atom_site_fract_x
 _atom_site_fract_y
 _atom_site_fract_z
 _atom_site_occupancy
  Li+  Li0  1  0.00000000  0.22100000  0.30000000  1.0
  Li+  Li0  1  0.50000000  0.22100000  0.30000000  1.0
  Li+  Li1  1  0.00000000  0.22100000  0.90000000  1.0
  Li+  Li1  1  0.50000000  0.22100000  0.90000000  1.0
  Li+  Li2  1  0.00000000  0.77900000  0.50000000  1.0
  Li+  Li2  1  0.50000000  0.77900000  0.50000000  1.0
  Li+  Li3  1  0.25000000  0.72100000  0.90000000  1.0
  Li+  Li3  1  0.75000000  0.72100000  0.90000000  1.0
  Li+  Li4  1  0.25000000  0.27900000  0.50000000  1.0
  Li+  Li4  1  0.75000000  0.27900000  0.50000000  1.0
  Li+  Li5  1  0.25000000  0.27900000  0.70000000  1.0
  Li+  Li5  1  0.75000000  0.27900000  0.70000000  1.0
  Li+  Li6  1  0.25000000  0.00000000  0.50000000  1.0
  Li+  Li6  1  0.75000000  0.00000000  0.50000000  1.0
  Li+  Li7  1  0.25000000  0.00000000  0.70000000  1.0
  Li+  Li7  1  0.75000000  0.00000000  0.70000000  1.0
  Li+  Li8  1  0.00000000  0.50000000  0.30000000  1.0
  Li+  Li8  1  0.50000000  0.50000000  0.30000000  1.0
  Li+  Li9  1  0.00000000  0.50000000  0.90000000  1.0
  Li+  Li9  1  0.50000000  0.50000000  0.90000000  1.0
  Li+  Li10  1  0.00000000  0.32500000  0.00000000  1.0
  Li+  Li10  1  0.50000000  0.32500000  0.00000000  1.0
  Li+  Li11  1  0.00000000  0.32500000  0.20000000  1.0
  Li+  Li11  1  0.50000000  0.32500000  0.20000000  1.0
  Li+  Li12  1  0.00000000  0.32500000  0.40000000  1.0
  Li+  Li12  1  0.50000000  0.32500000  0.40000000  1.0
  Li+  Li13  1  0.00000000  0.32500000  0.80000000  1.0
  Li+  Li13  1  0.50000000  0.32500000  0.80000000  1.0
  Li+  Li14  1  0.00000000  0.67500000  0.00000000  1.0
  Li+  Li14  1  0.50000000  0.67500000  0.00000000  1.0
  Li+  Li15  1  0.00000000  0.67500000  0.20000000  1.0
  Li+  Li15  1  0.50000000  0.67500000  0.20000000  1.0
  Li+  Li16  1  0.25000000  0.82500000  0.00000000  1.0
  Li+  Li16  1  0.75000000  0.82500000  0.00000000  1.0
  Li+  Li17  1  0.25000000  0.82500000  0.20000000  1.0
  Li+  Li17  1  0.75000000  0.82500000  0.20000000  1.0
  Li+  Li18  1  0.25000000  0.82500000  0.40000000  1.0
  Li+  Li18  1  0.75000000  0.82500000  0.40000000  1.0
  Li+  Li19  1  0.25000000  0.82500000  0.60000000  1.0
  Li+  Li19  1  0.75000000  0.82500000  0.60000000  1.0
  Li+  Li20  1  0.25000000  0.82500000  0.80000000  1.0
  Li+  Li20  1  0.75000000  0.82500000  0.80000000  1.0
  Li+  Li21  1  0.25000000  0.17500000  0.00000000  1.0
  Li+  Li21  1  0.75000000  0.17500000  0.00000000  1.0
  Li+  Li22  1  0.25000000  0.17500000  0.20000000  1.0
  Li+  Li22  1  0.75000000  0.17500000  0.20000000  1.0
  Li+  Li23  1  0.25000000  0.17500000  0.40000000  1.0
  Li+  Li23  1  0.75000000  0.17500000  0.40000000  1.0
  Li+  Li24  1  0.25000000  0.17500000  0.60000000  1.0
  Li+  Li24  1  0.75000000  0.17500000  0.60000000  1.0
  Li+  Li25  1  0.25000000  0.17500000  0.80000000  1.0
  Li+  Li25  1  0.75000000  0.17500000  0.80000000  1.0
  Zr4+  Zr26  1  0.00000000  0.32500000  0.60000000  1.0
  Zr4+  Zr26  1  0.50000000  0.32500000  0.60000000  1.0
  Zr4+  Zr27  1  0.00000000  0.00000000  0.00000000  1.0
  Zr4+  Zr27  1  0.50000000  0.00000000  0.00000000  1.0
  Zr4+  Zr28  1  0.00000000  0.00000000  0.80000000  1.0
  Zr4+  Zr28  1  0.50000000  0.00000000  0.80000000  1.0
  Zr4+  Zr29  1  0.25000000  0.50000000  0.20000000  1.0
  Zr4+  Zr29  1  0.75000000  0.50000000  0.20000000  1.0
  In3+  In30  1  0.00000000  0.67500000  0.40000000  1.0
  In3+  In30  1  0.50000000  0.67500000  0.40000000  1.0
  In3+  In31  1  0.00000000  0.67500000  0.80000000  1.0
  In3+  In31  1  0.50000000  0.67500000  0.80000000  1.0
  In3+  In32  1  0.00000000  0.00000000  0.20000000  1.0
  In3+  In32  1  0.50000000  0.00000000  0.20000000  1.0
  In3+  In33  1  0.25000000  0.50000000  0.00000000  1.0
  In3+  In33  1  0.75000000  0.50000000  0.00000000  1.0
  In3+  In34  1  0.25000000  0.50000000  0.40000000  1.0
  In3+  In34  1  0.75000000  0.50000000  0.40000000  1.0
  In3+  In35  1  0.25000000  0.50000000  0.60000000  1.0
  In3+  In35  1  0.75000000  0.50000000  0.60000000  1.0
  Cl-  Cl1  1  0.12105000  0.00000000  0.15214600  1.0
  Cl-  Cl1  1  0.62105000  0.00000000  0.15214600  1.0
  Cl-  Cl1  1  0.12105000  0.00000000  0.35214600  1.0
  Cl-  Cl1  1  0.62105000  0.00000000  0.35214600  1.0
  Cl-  Cl1  1  0.12105000  0.00000000  0.55214600  1.0
  Cl-  Cl1  1  0.62105000  0.00000000  0.55214600  1.0
  Cl-  Cl1  1  0.12105000  0.00000000  0.75214600  1.0
  Cl-  Cl1  1  0.62105000  0.00000000  0.75214600  1.0
  Cl-  Cl1  1  0.12105000  0.00000000  0.95214600  1.0
  Cl-  Cl1  1  0.62105000  0.00000000  0.95214600  1.0
  Cl-  Cl1  1  0.37895000  0.00000000  0.04785400  1.0
  Cl-  Cl1  1  0.87895000  0.00000000  0.04785400  1.0
  Cl-  Cl1  1  0.37895000  0.00000000  0.24785400  1.0
  Cl-  Cl1  1  0.87895000  0.00000000  0.24785400  1.0
  Cl-  Cl1  1  0.37895000  0.00000000  0.44785400  1.0
  Cl-  Cl1  1  0.87895000  0.00000000  0.44785400  1.0
  Cl-  Cl1  1  0.37895000  0.00000000  0.64785400  1.0
  Cl-  Cl1  1  0.87895000  0.00000000  0.64785400  1.0
  Cl-  Cl1  1  0.37895000  0.00000000  0.84785400  1.0
  Cl-  Cl1  1  0.87895000  0.00000000  0.84785400  1.0
  Cl-  Cl1  1  0.37105000  0.50000000  0.15214600  1.0
  Cl-  Cl1  1  0.87105000  0.50000000  0.15214600  1.0
  Cl-  Cl1  1  0.37105000  0.50000000  0.35214600  1.0
  Cl-  Cl1  1  0.87105000  0.50000000  0.35214600  1.0
  Cl-  Cl1  1  0.37105000  0.50000000  0.55214600  1.0
  Cl-  Cl1  1  0.87105000  0.50000000  0.55214600  1.0
  Cl-  Cl1  1  0.37105000  0.50000000  0.75214600  1.0
  Cl-  Cl1  1  0.87105000  0.50000000  0.75214600  1.0
  Cl-  Cl1  1  0.37105000  0.50000000  0.95214600  1.0
  Cl-  Cl1  1  0.87105000  0.50000000  0.95214600  1.0
  Cl-  Cl1  1  0.12895000  0.50000000  0.04785400  1.0
  Cl-  Cl1  1  0.62895000  0.50000000  0.04785400  1.0
  Cl-  Cl1  1  0.12895000  0.50000000  0.24785400  1.0
  Cl-  Cl1  1  0.62895000  0.50000000  0.24785400  1.0
  Cl-  Cl1  1  0.12895000  0.50000000  0.44785400  1.0
  Cl-  Cl1  1  0.62895000  0.50000000  0.44785400  1.0
  Cl-  Cl1  1  0.12895000  0.50000000  0.64785400  1.0
  Cl-  Cl1  1  0.62895000  0.50000000  0.64785400  1.0
  Cl-  Cl1  1  0.12895000  0.50000000  0.84785400  1.0
  Cl-  Cl1  1  0.62895000  0.50000000  0.84785400  1.0
  Cl-  Cl2  1  0.12425000  0.16240000  0.04728000  1.0
  Cl-  Cl2  1  0.62425000  0.16240000  0.04728000  1.0
  Cl-  Cl2  1  0.12425000  0.16240000  0.24728000  1.0
  Cl-  Cl2  1  0.62425000  0.16240000  0.24728000  1.0
  Cl-  Cl2  1  0.12425000  0.16240000  0.44728000  1.0
  Cl-  Cl2  1  0.62425000  0.16240000  0.44728000  1.0
  Cl-  Cl2  1  0.12425000  0.16240000  0.64728000  1.0
  Cl-  Cl2  1  0.62425000  0.16240000  0.64728000  1.0
  Cl-  Cl2  1  0.12425000  0.16240000  0.84728000  1.0
  Cl-  Cl2  1  0.62425000  0.16240000  0.84728000  1.0
  Cl-  Cl2  1  0.37575000  0.83760000  0.15272000  1.0
  Cl-  Cl2  1  0.87575000  0.83760000  0.15272000  1.0
  Cl-  Cl2  1  0.37575000  0.83760000  0.35272000  1.0
  Cl-  Cl2  1  0.87575000  0.83760000  0.35272000  1.0
  Cl-  Cl2  1  0.37575000  0.83760000  0.55272000  1.0
  Cl-  Cl2  1  0.87575000  0.83760000  0.55272000  1.0
  Cl-  Cl2  1  0.37575000  0.83760000  0.75272000  1.0
  Cl-  Cl2  1  0.87575000  0.83760000  0.75272000  1.0
  Cl-  Cl2  1  0.37575000  0.83760000  0.95272000  1.0
  Cl-  Cl2  1  0.87575000  0.83760000  0.95272000  1.0
  Cl-  Cl2  1  0.37575000  0.16240000  0.15272000  1.0
  Cl-  Cl2  1  0.87575000  0.16240000  0.15272000  1.0
  Cl-  Cl2  1  0.37575000  0.16240000  0.35272000  1.0
  Cl-  Cl2  1  0.87575000  0.16240000  0.35272000  1.0
  Cl-  Cl2  1  0.37575000  0.16240000  0.55272000  1.0
  Cl-  Cl2  1  0.87575000  0.16240000  0.55272000  1.0
  Cl-  Cl2  1  0.37575000  0.16240000  0.75272000  1.0
  Cl-  Cl2  1  0.87575000  0.16240000  0.75272000  1.0
  Cl-  Cl2  1  0.37575000  0.16240000  0.95272000  1.0
  Cl-  Cl2  1  0.87575000  0.16240000  0.95272000  1.0
  Cl-  Cl2  1  0.12425000  0.83760000  0.04728000  1.0
  Cl-  Cl2  1  0.62425000  0.83760000  0.04728000  1.0
  Cl-  Cl2  1  0.12425000  0.83760000  0.24728000  1.0
  Cl-  Cl2  1  0.62425000  0.83760000  0.24728000  1.0
  Cl-  Cl2  1  0.12425000  0.83760000  0.44728000  1.0
  Cl-  Cl2  1  0.62425000  0.83760000  0.44728000  1.0
  Cl-  Cl2  1  0.12425000  0.83760000  0.64728000  1.0
  Cl-  Cl2  1  0.62425000  0.83760000  0.64728000  1.0
  Cl-  Cl2  1  0.12425000  0.83760000  0.84728000  1.0
  Cl-  Cl2  1  0.62425000  0.83760000  0.84728000  1.0
  Cl-  Cl2  1  0.37425000  0.66240000  0.04728000  1.0
  Cl-  Cl2  1  0.87425000  0.66240000  0.04728000  1.0
  Cl-  Cl2  1  0.37425000  0.66240000  0.24728000  1.0
  Cl-  Cl2  1  0.87425000  0.66240000  0.24728000  1.0
  Cl-  Cl2  1  0.37425000  0.66240000  0.44728000  1.0
  Cl-  Cl2  1  0.87425000  0.66240000  0.44728000  1.0
  Cl-  Cl2  1  0.37425000  0.66240000  0.64728000  1.0
  Cl-  Cl2  1  0.87425000  0.66240000  0.64728000  1.0
  Cl-  Cl2  1  0.37425000  0.66240000  0.84728000  1.0
  Cl-  Cl2  1  0.87425000  0.66240000  0.84728000  1.0
  Cl-  Cl2  1  0.12575000  0.33760000  0.15272000  1.0
  Cl-  Cl2  1  0.62575000  0.33760000  0.15272000  1.0
  Cl-  Cl2  1  0.12575000  0.33760000  0.35272000  1.0
  Cl-  Cl2  1  0.62575000  0.33760000  0.35272000  1.0
  Cl-  Cl2  1  0.12575000  0.33760000  0.55272000  1.0
  Cl-  Cl2  1  0.62575000  0.33760000  0.55272000  1.0
  Cl-  Cl2  1  0.12575000  0.33760000  0.75272000  1.0
  Cl-  Cl2  1  0.62575000  0.33760000  0.75272000  1.0
  Cl-  Cl2  1  0.12575000  0.33760000  0.95272000  1.0
  Cl-  Cl2  1  0.62575000  0.33760000  0.95272000  1.0
  Cl-  Cl2  1  0.12575000  0.66240000  0.15272000  1.0
  Cl-  Cl2  1  0.62575000  0.66240000  0.15272000  1.0
  Cl-  Cl2  1  0.12575000  0.66240000  0.35272000  1.0
  Cl-  Cl2  1  0.62575000  0.66240000  0.35272000  1.0
  Cl-  Cl2  1  0.12575000  0.66240000  0.55272000  1.0
  Cl-  Cl2  1  0.62575000  0.66240000  0.55272000  1.0
  Cl-  Cl2  1  0.12575000  0.66240000  0.75272000  1.0
  Cl-  Cl2  1  0.62575000  0.66240000  0.75272000  1.0
  Cl-  Cl2  1  0.12575000  0.66240000  0.95272000  1.0
  Cl-  Cl2  1  0.62575000  0.66240000  0.95272000  1.0
  Cl-  Cl2  1  0.37425000  0.33760000  0.04728000  1.0
  Cl-  Cl2  1  0.87425000  0.33760000  0.04728000  1.0
  Cl-  Cl2  1  0.37425000  0.33760000  0.24728000  1.0
  Cl-  Cl2  1  0.87425000  0.33760000  0.24728000  1.0
  Cl-  Cl2  1  0.37425000  0.33760000  0.44728000  1.0
  Cl-  Cl2  1  0.87425000  0.33760000  0.44728000  1.0
  Cl-  Cl2  1  0.37425000  0.33760000  0.64728000  1.0
  Cl-  Cl2  1  0.87425000  0.33760000  0.64728000  1.0
  Cl-  Cl2  1  0.37425000  0.33760000  0.84728000  1.0
  Cl-  Cl2  1  0.87425000  0.33760000  0.84728000  1.0
