# generated using pymatgen
data_Li31SiP4(S5Br)5
_symmetry_space_group_name_H-M   'P 1'
_cell_length_a   35.44019187
_cell_length_b   7.08803837
_cell_length_c   21.26411511
_cell_angle_alpha   60.00000000
_cell_angle_beta   120.00000000
_cell_angle_gamma   120.00000000
_symmetry_Int_Tables_number   1
_chemical_formula_structural   Li31SiP4(S5Br)5
_chemical_formula_sum   'Li93 Si3 P12 S75 Br15'
_cell_volume   3777.06484660
_cell_formula_units_Z   3
loop_
 _symmetry_equiv_pos_site_id
 _symmetry_equiv_pos_as_xyz
  1  'x, y, z'
loop_
 _atom_type_symbol
 _atom_type_oxidation_number
  Li+  1.0
  Si4+  4.0
  P5+  5.0
  S2-  -2.0
  Br-  -1.0
loop_
 _atom_site_type_symbol
 _atom_site_label
 _atom_site_symmetry_multiplicity
 _atom_site_fract_x
 _atom_site_fract_y
 _atom_site_fract_z
 _atom_site_occupancy
  Li+  Li0  1  0.20340000  0.51700000  0.58900000  1.0
  Li+  Li1  1  0.20340000  0.51700000  0.25566667  1.0
  Li+  Li2  1  0.20340000  0.51700000  0.92233333  1.0
  Li+  Li3  1  0.29660000  0.98300000  0.74433333  1.0
  Li+  Li4  1  0.29660000  0.98300000  0.41100000  1.0
  Li+  Li5  1  0.29923990  0.98295387  0.07281779  1.0
  Li+  Li6  1  0.89660000  0.98300000  0.74433333  1.0
  Li+  Li7  1  0.89660000  0.98300000  0.41100000  1.0
  Li+  Li8  1  0.89938598  0.98381303  0.07886888  1.0
  Li+  Li9  1  0.09660000  0.98300000  0.58900000  1.0
  Li+  Li10  1  0.09660000  0.98300000  0.25566667  1.0
  Li+  Li11  1  0.09660000  0.98300000  0.92233333  1.0
  Li+  Li12  1  0.20502000  0.97490000  0.62976667  1.0
  Li+  Li13  1  0.20502000  0.97490000  0.29643333  1.0
  Li+  Li14  1  0.20502000  0.97490000  0.96310000  1.0
  Li+  Li15  1  0.40502000  0.97490000  0.62976667  1.0
  Li+  Li16  1  0.40502000  0.97490000  0.29643333  1.0
  Li+  Li17  1  0.40502000  0.97490000  0.96310000  1.0
  Li+  Li18  1  0.20502000  0.41090000  0.74163333  1.0
  Li+  Li19  1  0.20586021  0.40883246  0.40833158  1.0
  Li+  Li20  1  0.20502000  0.41090000  0.07496667  1.0
  Li+  Li21  1  0.40502000  0.41090000  0.74163333  1.0
  Li+  Li22  1  0.40502000  0.41090000  0.40830000  1.0
  Li+  Li23  1  0.40502000  0.41090000  0.07496667  1.0
  Li+  Li24  1  0.60502000  0.41090000  0.74163333  1.0
  Li+  Li25  1  0.60098289  0.41571903  0.40515479  1.0
  Li+  Li26  1  0.60384766  0.40946878  0.07215069  1.0
  Li+  Li27  1  0.80589428  0.41273111  0.74238768  1.0
  Li+  Li28  1  0.80502000  0.41090000  0.40830000  1.0
  Li+  Li29  1  0.80462738  0.41165120  0.07917110  1.0
  Li+  Li30  1  0.80502000  0.63930000  0.55363333  1.0
  Li+  Li31  1  0.80502000  0.63930000  0.22030000  1.0
  Li+  Li32  1  0.80832397  0.63941020  0.88773508  1.0
  Li+  Li33  1  0.00502000  0.41090000  0.62976667  1.0
  Li+  Li34  1  0.00502000  0.41090000  0.29643333  1.0
  Li+  Li35  1  0.00502000  0.41090000  0.96310000  1.0
  Li+  Li36  1  0.20502000  0.41090000  0.62976667  1.0
  Li+  Li37  1  0.20502000  0.41090000  0.29643333  1.0
  Li+  Li38  1  0.20604737  0.41260276  0.96521000  1.0
  Li+  Li39  1  0.40502000  0.41090000  0.62976667  1.0
  Li+  Li40  1  0.40502000  0.41090000  0.29643333  1.0
  Li+  Li41  1  0.40502000  0.41090000  0.96310000  1.0
  Li+  Li42  1  0.60502000  0.41090000  0.62976667  1.0
  Li+  Li43  1  0.60502000  0.41090000  0.29643333  1.0
  Li+  Li44  1  0.60502000  0.41090000  0.96310000  1.0
  Li+  Li45  1  0.00502000  0.63930000  0.74163333  1.0
  Li+  Li46  1  0.00502000  0.63930000  0.40830000  1.0
  Li+  Li47  1  0.00502000  0.63930000  0.07496667  1.0
  Li+  Li48  1  0.60691026  0.63897300  0.74413492  1.0
  Li+  Li49  1  0.60502000  0.63930000  0.40830000  1.0
  Li+  Li50  1  0.60502000  0.63930000  0.07496667  1.0
  Li+  Li51  1  0.80502000  0.63930000  0.74163333  1.0
  Li+  Li52  1  0.80479215  0.63684810  0.41042224  1.0
  Li+  Li53  1  0.80502000  0.63930000  0.07496667  1.0
  Li+  Li54  1  0.40502000  0.97490000  0.55363333  1.0
  Li+  Li55  1  0.40502000  0.97490000  0.22030000  1.0
  Li+  Li56  1  0.40502000  0.97490000  0.88696667  1.0
  Li+  Li57  1  0.60502000  0.97490000  0.55363333  1.0
  Li+  Li58  1  0.60502000  0.97490000  0.22030000  1.0
  Li+  Li59  1  0.60502000  0.97490000  0.88696667  1.0
  Li+  Li60  1  0.80502000  0.97490000  0.55363333  1.0
  Li+  Li61  1  0.80327833  0.97525341  0.22262194  1.0
  Li+  Li62  1  0.80502000  0.97490000  0.88696667  1.0
  Li+  Li63  1  0.07079278  0.41059525  0.74331952  1.0
  Li+  Li64  1  0.07214000  0.41090000  0.40830000  1.0
  Li+  Li65  1  0.07058594  0.41123235  0.07737954  1.0
  Li+  Li66  1  0.47214000  0.41090000  0.74163333  1.0
  Li+  Li67  1  0.47214000  0.41090000  0.40830000  1.0
  Li+  Li68  1  0.47030232  0.40995152  0.07808109  1.0
  Li+  Li69  1  0.67539834  0.41466820  0.73938655  1.0
  Li+  Li70  1  0.67462669  0.41097582  0.41066142  1.0
  Li+  Li71  1  0.67214000  0.41090000  0.07496667  1.0
  Li+  Li72  1  0.11782000  0.97490000  0.74163333  1.0
  Li+  Li73  1  0.11782000  0.97490000  0.40830000  1.0
  Li+  Li74  1  0.11782000  0.97490000  0.07496667  1.0
  Li+  Li75  1  0.07214000  0.97490000  0.74163333  1.0
  Li+  Li76  1  0.07214000  0.97490000  0.40830000  1.0
  Li+  Li77  1  0.07271065  0.97634708  0.07685103  1.0
  Li+  Li78  1  0.67288287  0.97527857  0.74354788  1.0
  Li+  Li79  1  0.67267527  0.97477757  0.41371808  1.0
  Li+  Li80  1  0.66549148  0.97100383  0.06957212  1.0
  Li+  Li81  1  0.87214000  0.97490000  0.74163333  1.0
  Li+  Li82  1  0.87214000  0.97490000  0.40830000  1.0
  Li+  Li83  1  0.87214000  0.97490000  0.07496667  1.0
  Li+  Li84  1  0.91782000  0.63930000  0.74163333  1.0
  Li+  Li85  1  0.91667429  0.64183016  0.40787709  1.0
  Li+  Li86  1  0.92022563  0.63742676  0.07549368  1.0
  Li+  Li87  1  0.71782000  0.97490000  0.62976667  1.0
  Li+  Li88  1  0.71782000  0.97490000  0.29643333  1.0
  Li+  Li89  1  0.71782000  0.97490000  0.96310000  1.0
  Li+  Li90  1  0.46975166  0.97727157  0.55173268  1.0
  Li+  Li91  1  0.47214000  0.97490000  0.22030000  1.0
  Li+  Li92  1  0.47214000  0.97490000  0.88696667  1.0
  Si4+  Si93  1  0.10000000  0.50000000  0.58333333  1.0
  Si4+  Si94  1  0.10000000  0.50000000  0.25000000  1.0
  Si4+  Si95  1  0.10000000  0.50000000  0.91666667  1.0
  P5+  P96  1  0.30000000  0.50000000  0.58333333  1.0
  P5+  P97  1  0.30000000  0.50000000  0.25000000  1.0
  P5+  P98  1  0.30000000  0.50000000  0.91666667  1.0
  P5+  P99  1  0.50160924  0.50312493  0.58604938  1.0
  P5+  P100  1  0.49858751  0.49394501  0.25358687  1.0
  P5+  P101  1  0.50000000  0.50000000  0.91666667  1.0
  P5+  P102  1  0.70000000  0.50000000  0.58333333  1.0
  P5+  P103  1  0.70000000  0.50000000  0.25000000  1.0
  P5+  P104  1  0.70000000  0.50000000  0.91666667  1.0
  P5+  P105  1  0.89917086  0.49755913  0.58481450  1.0
  P5+  P106  1  0.90398624  0.49869191  0.25471277  1.0
  P5+  P107  1  0.90000000  0.50000000  0.91666667  1.0
  S2-  S108  1  0.12432000  0.86480000  0.54280000  1.0
  S2-  S109  1  0.12432000  0.86480000  0.20946667  1.0
  S2-  S110  1  0.12432000  0.86480000  0.87613333  1.0
  S2-  S111  1  0.32432000  0.86480000  0.54280000  1.0
  S2-  S112  1  0.32432000  0.86480000  0.20946667  1.0
  S2-  S113  1  0.32432000  0.86480000  0.87613333  1.0
  S2-  S114  1  0.52432995  0.86353148  0.54237442  1.0
  S2-  S115  1  0.52432000  0.86480000  0.20946667  1.0
  S2-  S116  1  0.52432000  0.86480000  0.87613333  1.0
  S2-  S117  1  0.72432000  0.86480000  0.54280000  1.0
  S2-  S118  1  0.72337550  0.86547393  0.20734839  1.0
  S2-  S119  1  0.72432000  0.86480000  0.87613333  1.0
  S2-  S120  1  0.92432000  0.86480000  0.54280000  1.0
  S2-  S121  1  0.92432000  0.86480000  0.20946667  1.0
  S2-  S122  1  0.92432000  0.86480000  0.87613333  1.0
  S2-  S123  1  0.12432000  0.37840000  0.70493333  1.0
  S2-  S124  1  0.12432000  0.37840000  0.37160000  1.0
  S2-  S125  1  0.12432000  0.37840000  0.03826667  1.0
  S2-  S126  1  0.32432000  0.37840000  0.70493333  1.0
  S2-  S127  1  0.32432000  0.37840000  0.37160000  1.0
  S2-  S128  1  0.32432000  0.37840000  0.03826667  1.0
  S2-  S129  1  0.52352892  0.37928232  0.69926463  1.0
  S2-  S130  1  0.52432000  0.37840000  0.37160000  1.0
  S2-  S131  1  0.52432000  0.37840000  0.03826667  1.0
  S2-  S132  1  0.72432000  0.37840000  0.70493333  1.0
  S2-  S133  1  0.72062321  0.37957575  0.37483026  1.0
  S2-  S134  1  0.72432000  0.37840000  0.03826667  1.0
  S2-  S135  1  0.92432000  0.37840000  0.70493333  1.0
  S2-  S136  1  0.92790846  0.37584424  0.36765044  1.0
  S2-  S137  1  0.92323619  0.37939539  0.03908470  1.0
  S2-  S138  1  0.12432000  0.37840000  0.54280000  1.0
  S2-  S139  1  0.12432000  0.37840000  0.20946667  1.0
  S2-  S140  1  0.12432000  0.37840000  0.87613333  1.0
  S2-  S141  1  0.32432000  0.37840000  0.54280000  1.0
  S2-  S142  1  0.32764033  0.38070742  0.21064664  1.0
  S2-  S143  1  0.32432000  0.37840000  0.87613333  1.0
  S2-  S144  1  0.52432000  0.37840000  0.54280000  1.0
  S2-  S145  1  0.52328467  0.37643087  0.20770375  1.0
  S2-  S146  1  0.52849983  0.37896758  0.87464072  1.0
  S2-  S147  1  0.72432000  0.37840000  0.54280000  1.0
  S2-  S148  1  0.72422084  0.37953544  0.20761831  1.0
  S2-  S149  1  0.72432000  0.37840000  0.87613333  1.0
  S2-  S150  1  0.92432000  0.37840000  0.54280000  1.0
  S2-  S151  1  0.92432000  0.37840000  0.20946667  1.0
  S2-  S152  1  0.92432000  0.37840000  0.87613333  1.0
  S2-  S153  1  0.02704000  0.37840000  0.54280000  1.0
  S2-  S154  1  0.02704000  0.37840000  0.20946667  1.0
  S2-  S155  1  0.02704000  0.37840000  0.87613333  1.0
  S2-  S156  1  0.22704000  0.37840000  0.54280000  1.0
  S2-  S157  1  0.22704000  0.37840000  0.20946667  1.0
  S2-  S158  1  0.22704000  0.37840000  0.87613333  1.0
  S2-  S159  1  0.42704000  0.37840000  0.54280000  1.0
  S2-  S160  1  0.42704000  0.37840000  0.20946667  1.0
  S2-  S161  1  0.42704000  0.37840000  0.87613333  1.0
  S2-  S162  1  0.62914840  0.37499742  0.54425454  1.0
  S2-  S163  1  0.62640612  0.37709707  0.21073329  1.0
  S2-  S164  1  0.62704000  0.37840000  0.87613333  1.0
  S2-  S165  1  0.82704000  0.37840000  0.54280000  1.0
  S2-  S166  1  0.82406148  0.37892265  0.20717120  1.0
  S2-  S167  1  0.82936608  0.38031453  0.87325852  1.0
  S2-  S168  1  0.79946558  0.99913324  0.75126979  1.0
  S2-  S169  1  0.80000000  0.00000000  0.41666667  1.0
  S2-  S170  1  0.80000000  0.00000000  0.08333333  1.0
  S2-  S171  1  0.05554268  0.75481476  0.66809963  1.0
  S2-  S172  1  0.05000000  0.75000000  0.33333333  1.0
  S2-  S173  1  0.05000000  0.75000000  0.00000000  1.0
  S2-  S174  1  0.45000000  0.75000000  0.66666667  1.0
  S2-  S175  1  0.44884006  0.75563785  0.33620279  1.0
  S2-  S176  1  0.44924564  0.75295749  0.99804465  1.0
  S2-  S177  1  0.65000000  0.75000000  0.66666667  1.0
  S2-  S178  1  0.65000000  0.75000000  0.33333333  1.0
  S2-  S179  1  0.65000000  0.75000000  0.00000000  1.0
  S2-  S180  1  0.85000000  0.75000000  0.66666667  1.0
  S2-  S181  1  0.85000000  0.75000000  0.33333333  1.0
  S2-  S182  1  0.85000000  0.75000000  0.00000000  1.0
  Br-  Br183  1  0.00000000  0.00000000  0.75000000  1.0
  Br-  Br184  1  0.00000000  0.00000000  0.41666667  1.0
  Br-  Br185  1  0.99828776  0.00143811  0.08351477  1.0
  Br-  Br186  1  0.20000000  0.00000000  0.75000000  1.0
  Br-  Br187  1  0.20000000  0.00000000  0.41666667  1.0
  Br-  Br188  1  0.20000000  0.00000000  0.08333333  1.0
  Br-  Br189  1  0.40000000  0.00000000  0.75000000  1.0
  Br-  Br190  1  0.40000000  0.00000000  0.41666667  1.0
  Br-  Br191  1  0.40061828  0.00405535  0.08395962  1.0
  Br-  Br192  1  0.59855010  0.00188398  0.75008067  1.0
  Br-  Br193  1  0.60000000  0.00000000  0.41666667  1.0
  Br-  Br194  1  0.60000000  0.00000000  0.08333333  1.0
  Br-  Br195  1  0.25000000  0.75000000  0.66666667  1.0
  Br-  Br196  1  0.25000000  0.75000000  0.33333333  1.0
  Br-  Br197  1  0.25000000  0.75000000  0.00000000  1.0
