# generated using pymatgen
data_Li31SiP4(S5Br)5
_symmetry_space_group_name_H-M   'P 1'
_cell_length_a   21.24461274
_cell_length_b   35.40768792
_cell_length_c   7.08153758
_cell_angle_alpha   120.00000000
_cell_angle_beta   120.00000000
_cell_angle_gamma   60.00000000
_symmetry_Int_Tables_number   1
_chemical_formula_structural   Li31SiP4(S5Br)5
_chemical_formula_sum   'Li93 Si3 P12 S75 Br15'
_cell_volume   3766.68197701
_cell_formula_units_Z   3
loop_
 _symmetry_equiv_pos_site_id
 _symmetry_equiv_pos_as_xyz
  1  'x, y, z'
loop_
 _atom_type_symbol
 _atom_type_oxidation_number
  Li+  1.0
  Si4+  4.0
  P5+  5.0
  S2-  -2.0
  Br-  -1.0
loop_
 _atom_site_type_symbol
 _atom_site_label
 _atom_site_symmetry_multiplicity
 _atom_site_fract_x
 _atom_site_fract_y
 _atom_site_fract_z
 _atom_site_occupancy
  Li+  Li0  1  0.83900000  0.46326667  0.48300000  1.0
  Li+  Li1  1  0.50566667  0.46326667  0.48300000  1.0
  Li+  Li2  1  0.17233333  0.46326667  0.48300000  1.0
  Li+  Li3  1  0.99433333  0.37006667  0.01700000  1.0
  Li+  Li4  1  0.66100000  0.37006667  0.01700000  1.0
  Li+  Li5  1  0.32766667  0.37006667  0.01700000  1.0
  Li+  Li6  1  0.99433333  0.77006667  0.01700000  1.0
  Li+  Li7  1  0.66100000  0.77006667  0.01700000  1.0
  Li+  Li8  1  0.32766667  0.77006667  0.01700000  1.0
  Li+  Li9  1  0.83900000  0.57006667  0.01700000  1.0
  Li+  Li10  1  0.50566667  0.57006667  0.01700000  1.0
  Li+  Li11  1  0.17233333  0.57006667  0.01700000  1.0
  Li+  Li12  1  0.87976667  0.46164667  0.02510000  1.0
  Li+  Li13  1  0.54643333  0.46164667  0.02510000  1.0
  Li+  Li14  1  0.21310000  0.46164667  0.02510000  1.0
  Li+  Li15  1  0.87976667  0.26164667  0.02510000  1.0
  Li+  Li16  1  0.54643333  0.26164667  0.02510000  1.0
  Li+  Li17  1  0.21310000  0.26164667  0.02510000  1.0
  Li+  Li18  1  0.99163333  0.46164667  0.58910000  1.0
  Li+  Li19  1  0.65830000  0.46164667  0.58910000  1.0
  Li+  Li20  1  0.32496667  0.46164667  0.58910000  1.0
  Li+  Li21  1  0.99163333  0.26164667  0.58910000  1.0
  Li+  Li22  1  0.65830000  0.26164667  0.58910000  1.0
  Li+  Li23  1  0.32496667  0.26164667  0.58910000  1.0
  Li+  Li24  1  0.99163333  0.06164667  0.58910000  1.0
  Li+  Li25  1  0.65830000  0.06164667  0.58910000  1.0
  Li+  Li26  1  0.32496667  0.06164667  0.58910000  1.0
  Li+  Li27  1  0.99163333  0.86164667  0.58910000  1.0
  Li+  Li28  1  0.65830000  0.86164667  0.58910000  1.0
  Li+  Li29  1  0.32496667  0.86164667  0.58910000  1.0
  Li+  Li30  1  0.80363333  0.86164667  0.36070000  1.0
  Li+  Li31  1  0.47030000  0.86164667  0.36070000  1.0
  Li+  Li32  1  0.13696667  0.86164667  0.36070000  1.0
  Li+  Li33  1  0.87976667  0.66164667  0.58910000  1.0
  Li+  Li34  1  0.54643333  0.66164667  0.58910000  1.0
  Li+  Li35  1  0.21310000  0.66164667  0.58910000  1.0
  Li+  Li36  1  0.87976667  0.46164667  0.58910000  1.0
  Li+  Li37  1  0.54643333  0.46164667  0.58910000  1.0
  Li+  Li38  1  0.21310000  0.46164667  0.58910000  1.0
  Li+  Li39  1  0.87976667  0.26164667  0.58910000  1.0
  Li+  Li40  1  0.54643333  0.26164667  0.58910000  1.0
  Li+  Li41  1  0.21310000  0.26164667  0.58910000  1.0
  Li+  Li42  1  0.87976667  0.06164667  0.58910000  1.0
  Li+  Li43  1  0.54643333  0.06164667  0.58910000  1.0
  Li+  Li44  1  0.21310000  0.06164667  0.58910000  1.0
  Li+  Li45  1  0.99163333  0.66164667  0.36070000  1.0
  Li+  Li46  1  0.65830000  0.66164667  0.36070000  1.0
  Li+  Li47  1  0.32496667  0.66164667  0.36070000  1.0
  Li+  Li48  1  0.99163333  0.06164667  0.36070000  1.0
  Li+  Li49  1  0.65830000  0.06164667  0.36070000  1.0
  Li+  Li50  1  0.32496667  0.06164667  0.36070000  1.0
  Li+  Li51  1  0.99163333  0.86164667  0.36070000  1.0
  Li+  Li52  1  0.65830000  0.86164667  0.36070000  1.0
  Li+  Li53  1  0.32496667  0.86164667  0.36070000  1.0
  Li+  Li54  1  0.80363333  0.26164667  0.02510000  1.0
  Li+  Li55  1  0.47030000  0.26164667  0.02510000  1.0
  Li+  Li56  1  0.13696667  0.26164667  0.02510000  1.0
  Li+  Li57  1  0.80363333  0.06164667  0.02510000  1.0
  Li+  Li58  1  0.47030000  0.06164667  0.02510000  1.0
  Li+  Li59  1  0.13696667  0.06164667  0.02510000  1.0
  Li+  Li60  1  0.80363333  0.86164667  0.02510000  1.0
  Li+  Li61  1  0.47030000  0.86164667  0.02510000  1.0
  Li+  Li62  1  0.13696667  0.86164667  0.02510000  1.0
  Li+  Li63  1  0.99163333  0.59452667  0.58910000  1.0
  Li+  Li64  1  0.65830000  0.59452667  0.58910000  1.0
  Li+  Li65  1  0.32496667  0.59452667  0.58910000  1.0
  Li+  Li66  1  0.99163333  0.19452667  0.58910000  1.0
  Li+  Li67  1  0.65830000  0.19452667  0.58910000  1.0
  Li+  Li68  1  0.32496667  0.19452667  0.58910000  1.0
  Li+  Li69  1  0.99163333  0.99452667  0.58910000  1.0
  Li+  Li70  1  0.65830000  0.99452667  0.58910000  1.0
  Li+  Li71  1  0.32496667  0.99452667  0.58910000  1.0
  Li+  Li72  1  0.99163333  0.54884667  0.02510000  1.0
  Li+  Li73  1  0.65830000  0.54884667  0.02510000  1.0
  Li+  Li74  1  0.32496667  0.54884667  0.02510000  1.0
  Li+  Li75  1  0.99163333  0.59452667  0.02510000  1.0
  Li+  Li76  1  0.65830000  0.59452667  0.02510000  1.0
  Li+  Li77  1  0.32496667  0.59452667  0.02510000  1.0
  Li+  Li78  1  0.99163333  0.99452667  0.02510000  1.0
  Li+  Li79  1  0.65830000  0.99452667  0.02510000  1.0
  Li+  Li80  1  0.32496667  0.99452667  0.02510000  1.0
  Li+  Li81  1  0.99163333  0.79452667  0.02510000  1.0
  Li+  Li82  1  0.65830000  0.79452667  0.02510000  1.0
  Li+  Li83  1  0.32496667  0.79452667  0.02510000  1.0
  Li+  Li84  1  0.99163333  0.74884667  0.36070000  1.0
  Li+  Li85  1  0.65830000  0.74884667  0.36070000  1.0
  Li+  Li86  1  0.32496667  0.74884667  0.36070000  1.0
  Li+  Li87  1  0.87976667  0.94884667  0.02510000  1.0
  Li+  Li88  1  0.54643333  0.94884667  0.02510000  1.0
  Li+  Li89  1  0.21310000  0.94884667  0.02510000  1.0
  Li+  Li90  1  0.80363333  0.19452667  0.02510000  1.0
  Li+  Li91  1  0.47030000  0.19452667  0.02510000  1.0
  Li+  Li92  1  0.13696667  0.19452667  0.02510000  1.0
  Si4+  Si93  1  0.83333333  0.56666667  0.50000000  1.0
  Si4+  Si94  1  0.50000000  0.56666667  0.50000000  1.0
  Si4+  Si95  1  0.16666667  0.56666667  0.50000000  1.0
  P5+  P96  1  0.83333333  0.36666667  0.50000000  1.0
  P5+  P97  1  0.50000000  0.36666667  0.50000000  1.0
  P5+  P98  1  0.16666667  0.36666667  0.50000000  1.0
  P5+  P99  1  0.83333333  0.16666667  0.50000000  1.0
  P5+  P100  1  0.50000000  0.16666667  0.50000000  1.0
  P5+  P101  1  0.16666667  0.16666667  0.50000000  1.0
  P5+  P102  1  0.83333333  0.96666667  0.50000000  1.0
  P5+  P103  1  0.50000000  0.96666667  0.50000000  1.0
  P5+  P104  1  0.16666667  0.96666667  0.50000000  1.0
  P5+  P105  1  0.83333333  0.76666667  0.50000000  1.0
  P5+  P106  1  0.50000000  0.76666667  0.50000000  1.0
  P5+  P107  1  0.16666667  0.76666667  0.50000000  1.0
  S2-  S108  1  0.79280000  0.54234667  0.13520000  1.0
  S2-  S109  1  0.45946667  0.54234667  0.13520000  1.0
  S2-  S110  1  0.12613333  0.54234667  0.13520000  1.0
  S2-  S111  1  0.79280000  0.34234667  0.13520000  1.0
  S2-  S112  1  0.45946667  0.34234667  0.13520000  1.0
  S2-  S113  1  0.12613333  0.34234667  0.13520000  1.0
  S2-  S114  1  0.79280000  0.14234667  0.13520000  1.0
  S2-  S115  1  0.45946667  0.14234667  0.13520000  1.0
  S2-  S116  1  0.12613333  0.14234667  0.13520000  1.0
  S2-  S117  1  0.79280000  0.94234667  0.13520000  1.0
  S2-  S118  1  0.45946667  0.94234667  0.13520000  1.0
  S2-  S119  1  0.12613333  0.94234667  0.13520000  1.0
  S2-  S120  1  0.79280000  0.74234667  0.13520000  1.0
  S2-  S121  1  0.45946667  0.74234667  0.13520000  1.0
  S2-  S122  1  0.12613333  0.74234667  0.13520000  1.0
  S2-  S123  1  0.95493333  0.54234667  0.62160000  1.0
  S2-  S124  1  0.62160000  0.54234667  0.62160000  1.0
  S2-  S125  1  0.28826667  0.54234667  0.62160000  1.0
  S2-  S126  1  0.95493333  0.34234667  0.62160000  1.0
  S2-  S127  1  0.62160000  0.34234667  0.62160000  1.0
  S2-  S128  1  0.28826667  0.34234667  0.62160000  1.0
  S2-  S129  1  0.95493333  0.14234667  0.62160000  1.0
  S2-  S130  1  0.62160000  0.14234667  0.62160000  1.0
  S2-  S131  1  0.28826667  0.14234667  0.62160000  1.0
  S2-  S132  1  0.95493333  0.94234667  0.62160000  1.0
  S2-  S133  1  0.62160000  0.94234667  0.62160000  1.0
  S2-  S134  1  0.28826667  0.94234667  0.62160000  1.0
  S2-  S135  1  0.95493333  0.74234667  0.62160000  1.0
  S2-  S136  1  0.62160000  0.74234667  0.62160000  1.0
  S2-  S137  1  0.28826667  0.74234667  0.62160000  1.0
  S2-  S138  1  0.79280000  0.54234667  0.62160000  1.0
  S2-  S139  1  0.45946667  0.54234667  0.62160000  1.0
  S2-  S140  1  0.12613333  0.54234667  0.62160000  1.0
  S2-  S141  1  0.79280000  0.34234667  0.62160000  1.0
  S2-  S142  1  0.45946667  0.34234667  0.62160000  1.0
  S2-  S143  1  0.12613333  0.34234667  0.62160000  1.0
  S2-  S144  1  0.79280000  0.14234667  0.62160000  1.0
  S2-  S145  1  0.45946667  0.14234667  0.62160000  1.0
  S2-  S146  1  0.12613333  0.14234667  0.62160000  1.0
  S2-  S147  1  0.79280000  0.94234667  0.62160000  1.0
  S2-  S148  1  0.45946667  0.94234667  0.62160000  1.0
  S2-  S149  1  0.12613333  0.94234667  0.62160000  1.0
  S2-  S150  1  0.79280000  0.74234667  0.62160000  1.0
  S2-  S151  1  0.45946667  0.74234667  0.62160000  1.0
  S2-  S152  1  0.12613333  0.74234667  0.62160000  1.0
  S2-  S153  1  0.79280000  0.63962667  0.62160000  1.0
  S2-  S154  1  0.45946667  0.63962667  0.62160000  1.0
  S2-  S155  1  0.12613333  0.63962667  0.62160000  1.0
  S2-  S156  1  0.79280000  0.43962667  0.62160000  1.0
  S2-  S157  1  0.45946667  0.43962667  0.62160000  1.0
  S2-  S158  1  0.12613333  0.43962667  0.62160000  1.0
  S2-  S159  1  0.79280000  0.23962667  0.62160000  1.0
  S2-  S160  1  0.45946667  0.23962667  0.62160000  1.0
  S2-  S161  1  0.12613333  0.23962667  0.62160000  1.0
  S2-  S162  1  0.79280000  0.03962667  0.62160000  1.0
  S2-  S163  1  0.45946667  0.03962667  0.62160000  1.0
  S2-  S164  1  0.12613333  0.03962667  0.62160000  1.0
  S2-  S165  1  0.79280000  0.83962667  0.62160000  1.0
  S2-  S166  1  0.45946667  0.83962667  0.62160000  1.0
  S2-  S167  1  0.12613333  0.83962667  0.62160000  1.0
  S2-  S168  1  0.00000000  0.86666667  0.00000000  1.0
  S2-  S169  1  0.66666667  0.86666667  0.00000000  1.0
  S2-  S170  1  0.33333333  0.86666667  0.00000000  1.0
  S2-  S171  1  0.91666667  0.61666667  0.25000000  1.0
  S2-  S172  1  0.58333333  0.61666667  0.25000000  1.0
  S2-  S173  1  0.25000000  0.61666667  0.25000000  1.0
  S2-  S174  1  0.91666667  0.21666667  0.25000000  1.0
  S2-  S175  1  0.58333333  0.21666667  0.25000000  1.0
  S2-  S176  1  0.25000000  0.21666667  0.25000000  1.0
  S2-  S177  1  0.91666667  0.01666667  0.25000000  1.0
  S2-  S178  1  0.58333333  0.01666667  0.25000000  1.0
  S2-  S179  1  0.25000000  0.01666667  0.25000000  1.0
  S2-  S180  1  0.91666667  0.81666667  0.25000000  1.0
  S2-  S181  1  0.58333333  0.81666667  0.25000000  1.0
  S2-  S182  1  0.25000000  0.81666667  0.25000000  1.0
  Br-  Br183  1  0.00000000  0.66666667  0.00000000  1.0
  Br-  Br184  1  0.66666667  0.66666667  0.00000000  1.0
  Br-  Br185  1  0.33333333  0.66666667  0.00000000  1.0
  Br-  Br186  1  0.00000000  0.46666667  0.00000000  1.0
  Br-  Br187  1  0.66666667  0.46666667  0.00000000  1.0
  Br-  Br188  1  0.33333333  0.46666667  0.00000000  1.0
  Br-  Br189  1  0.00000000  0.26666667  0.00000000  1.0
  Br-  Br190  1  0.66666667  0.26666667  0.00000000  1.0
  Br-  Br191  1  0.33333333  0.26666667  0.00000000  1.0
  Br-  Br192  1  0.00000000  0.06666667  0.00000000  1.0
  Br-  Br193  1  0.66666667  0.06666667  0.00000000  1.0
  Br-  Br194  1  0.33333333  0.06666667  0.00000000  1.0
  Br-  Br195  1  0.91666667  0.41666667  0.25000000  1.0
  Br-  Br196  1  0.58333333  0.41666667  0.25000000  1.0
  Br-  Br197  1  0.25000000  0.41666667  0.25000000  1.0
