# generated using pymatgen
data_Li31SiP4(S5Br)5
_symmetry_space_group_name_H-M   'P 1'
_cell_length_a   35.44019187
_cell_length_b   21.26411511
_cell_length_c   7.08803837
_cell_angle_alpha   60.00000000
_cell_angle_beta   60.00000000
_cell_angle_gamma   60.00000000
_symmetry_Int_Tables_number   1
_chemical_formula_structural   Li31SiP4(S5Br)5
_chemical_formula_sum   'Li93 Si3 P12 S75 Br15'
_cell_volume   3777.06484660
_cell_formula_units_Z   3
loop_
 _symmetry_equiv_pos_site_id
 _symmetry_equiv_pos_as_xyz
  1  'x, y, z'
loop_
 _atom_type_symbol
 _atom_type_oxidation_number
  Li+  1.0
  Si4+  4.0
  P5+  5.0
  S2-  -2.0
  Br-  -1.0
loop_
 _atom_site_type_symbol
 _atom_site_label
 _atom_site_symmetry_multiplicity
 _atom_site_fract_x
 _atom_site_fract_y
 _atom_site_fract_z
 _atom_site_occupancy
  Li+  Li0  1  0.20340000  0.16100000  0.48300000  1.0
  Li+  Li0  1  0.20340000  0.49433333  0.48300000  1.0
  Li+  Li0  1  0.20340000  0.82766667  0.48300000  1.0
  Li+  Li1  1  0.29660000  0.00566667  0.01700000  1.0
  Li+  Li1  1  0.29660000  0.33900000  0.01700000  1.0
  Li+  Li1  1  0.29660000  0.67233333  0.01700000  1.0
  Li+  Li2  1  0.89660000  0.00566667  0.01700000  1.0
  Li+  Li2  1  0.89660000  0.33900000  0.01700000  1.0
  Li+  Li2  1  0.89660000  0.67233333  0.01700000  1.0
  Li+  Li3  1  0.09660000  0.16100000  0.01700000  1.0
  Li+  Li3  1  0.09660000  0.49433333  0.01700000  1.0
  Li+  Li3  1  0.09660000  0.82766667  0.01700000  1.0
  Li+  Li4  1  0.20502000  0.12023333  0.02510000  1.0
  Li+  Li4  1  0.20502000  0.45356667  0.02510000  1.0
  Li+  Li4  1  0.20502000  0.78690000  0.02510000  1.0
  Li+  Li5  1  0.40502000  0.12023333  0.02510000  1.0
  Li+  Li5  1  0.40502000  0.45356667  0.02510000  1.0
  Li+  Li5  1  0.40502000  0.78690000  0.02510000  1.0
  Li+  Li6  1  0.20502000  0.00836667  0.58910000  1.0
  Li+  Li6  1  0.20502000  0.34170000  0.58910000  1.0
  Li+  Li6  1  0.20502000  0.67503333  0.58910000  1.0
  Li+  Li7  1  0.40502000  0.00836667  0.58910000  1.0
  Li+  Li7  1  0.40502000  0.34170000  0.58910000  1.0
  Li+  Li7  1  0.40502000  0.67503333  0.58910000  1.0
  Li+  Li8  1  0.60502000  0.00836667  0.58910000  1.0
  Li+  Li8  1  0.60502000  0.34170000  0.58910000  1.0
  Li+  Li8  1  0.60502000  0.67503333  0.58910000  1.0
  Li+  Li9  1  0.80502000  0.00836667  0.58910000  1.0
  Li+  Li9  1  0.80502000  0.34170000  0.58910000  1.0
  Li+  Li9  1  0.80502000  0.67503333  0.58910000  1.0
  Li+  Li10  1  0.80502000  0.19636667  0.36070000  1.0
  Li+  Li10  1  0.80502000  0.52970000  0.36070000  1.0
  Li+  Li10  1  0.80502000  0.86303333  0.36070000  1.0
  Li+  Li11  1  0.00502000  0.12023333  0.58910000  1.0
  Li+  Li11  1  0.00502000  0.45356667  0.58910000  1.0
  Li+  Li11  1  0.00502000  0.78690000  0.58910000  1.0
  Li+  Li12  1  0.20502000  0.12023333  0.58910000  1.0
  Li+  Li12  1  0.20502000  0.45356667  0.58910000  1.0
  Li+  Li12  1  0.20502000  0.78690000  0.58910000  1.0
  Li+  Li13  1  0.40502000  0.12023333  0.58910000  1.0
  Li+  Li13  1  0.40502000  0.45356667  0.58910000  1.0
  Li+  Li13  1  0.40502000  0.78690000  0.58910000  1.0
  Li+  Li14  1  0.60502000  0.12023333  0.58910000  1.0
  Li+  Li14  1  0.60502000  0.45356667  0.58910000  1.0
  Li+  Li14  1  0.60502000  0.78690000  0.58910000  1.0
  Li+  Li15  1  0.00502000  0.00836667  0.36070000  1.0
  Li+  Li15  1  0.00502000  0.34170000  0.36070000  1.0
  Li+  Li15  1  0.00502000  0.67503333  0.36070000  1.0
  Li+  Li16  1  0.60502000  0.00836667  0.36070000  1.0
  Li+  Li16  1  0.60502000  0.34170000  0.36070000  1.0
  Li+  Li16  1  0.60502000  0.67503333  0.36070000  1.0
  Li+  Li17  1  0.80502000  0.00836667  0.36070000  1.0
  Li+  Li17  1  0.80502000  0.34170000  0.36070000  1.0
  Li+  Li17  1  0.80502000  0.67503333  0.36070000  1.0
  Li+  Li18  1  0.40502000  0.19636667  0.02510000  1.0
  Li+  Li18  1  0.40502000  0.52970000  0.02510000  1.0
  Li+  Li18  1  0.40502000  0.86303333  0.02510000  1.0
  Li+  Li19  1  0.60502000  0.19636667  0.02510000  1.0
  Li+  Li19  1  0.60502000  0.52970000  0.02510000  1.0
  Li+  Li19  1  0.60502000  0.86303333  0.02510000  1.0
  Li+  Li20  1  0.80502000  0.19636667  0.02510000  1.0
  Li+  Li20  1  0.80502000  0.52970000  0.02510000  1.0
  Li+  Li20  1  0.80502000  0.86303333  0.02510000  1.0
  Li+  Li21  1  0.07214000  0.00836667  0.58910000  1.0
  Li+  Li21  1  0.07214000  0.34170000  0.58910000  1.0
  Li+  Li21  1  0.07214000  0.67503333  0.58910000  1.0
  Li+  Li22  1  0.47214000  0.00836667  0.58910000  1.0
  Li+  Li22  1  0.47214000  0.34170000  0.58910000  1.0
  Li+  Li22  1  0.47214000  0.67503333  0.58910000  1.0
  Li+  Li23  1  0.67214000  0.00836667  0.58910000  1.0
  Li+  Li23  1  0.67214000  0.34170000  0.58910000  1.0
  Li+  Li23  1  0.67214000  0.67503333  0.58910000  1.0
  Li+  Li24  1  0.11782000  0.00836667  0.02510000  1.0
  Li+  Li24  1  0.11782000  0.34170000  0.02510000  1.0
  Li+  Li24  1  0.11782000  0.67503333  0.02510000  1.0
  Li+  Li25  1  0.07214000  0.00836667  0.02510000  1.0
  Li+  Li25  1  0.07214000  0.34170000  0.02510000  1.0
  Li+  Li25  1  0.07214000  0.67503333  0.02510000  1.0
  Li+  Li26  1  0.67214000  0.00836667  0.02510000  1.0
  Li+  Li26  1  0.67214000  0.34170000  0.02510000  1.0
  Li+  Li26  1  0.67214000  0.67503333  0.02510000  1.0
  Li+  Li27  1  0.87214000  0.00836667  0.02510000  1.0
  Li+  Li27  1  0.87214000  0.34170000  0.02510000  1.0
  Li+  Li27  1  0.87214000  0.67503333  0.02510000  1.0
  Li+  Li28  1  0.91782000  0.00836667  0.36070000  1.0
  Li+  Li28  1  0.91782000  0.34170000  0.36070000  1.0
  Li+  Li28  1  0.91782000  0.67503333  0.36070000  1.0
  Li+  Li29  1  0.71782000  0.12023333  0.02510000  1.0
  Li+  Li29  1  0.71782000  0.45356667  0.02510000  1.0
  Li+  Li29  1  0.71782000  0.78690000  0.02510000  1.0
  Li+  Li30  1  0.47214000  0.19636667  0.02510000  1.0
  Li+  Li30  1  0.47214000  0.52970000  0.02510000  1.0
  Li+  Li30  1  0.47214000  0.86303333  0.02510000  1.0
  Si4+  Si31  1  0.10000000  0.16666667  0.50000000  1.0
  Si4+  Si31  1  0.10000000  0.50000000  0.50000000  1.0
  Si4+  Si31  1  0.10000000  0.83333333  0.50000000  1.0
  P5+  P32  1  0.30000000  0.16666667  0.50000000  1.0
  P5+  P32  1  0.30000000  0.50000000  0.50000000  1.0
  P5+  P32  1  0.30000000  0.83333333  0.50000000  1.0
  P5+  P33  1  0.50000000  0.16666667  0.50000000  1.0
  P5+  P33  1  0.50000000  0.50000000  0.50000000  1.0
  P5+  P33  1  0.50000000  0.83333333  0.50000000  1.0
  P5+  P34  1  0.70000000  0.16666667  0.50000000  1.0
  P5+  P34  1  0.70000000  0.50000000  0.50000000  1.0
  P5+  P34  1  0.70000000  0.83333333  0.50000000  1.0
  P5+  P35  1  0.90000000  0.16666667  0.50000000  1.0
  P5+  P35  1  0.90000000  0.50000000  0.50000000  1.0
  P5+  P35  1  0.90000000  0.83333333  0.50000000  1.0
  S2-  S2  1  0.12432000  0.20720000  0.13520000  1.0
  S2-  S2  1  0.12432000  0.54053333  0.13520000  1.0
  S2-  S2  1  0.12432000  0.87386667  0.13520000  1.0
  S2-  S2  1  0.32432000  0.20720000  0.13520000  1.0
  S2-  S2  1  0.32432000  0.54053333  0.13520000  1.0
  S2-  S2  1  0.32432000  0.87386667  0.13520000  1.0
  S2-  S2  1  0.52432000  0.20720000  0.13520000  1.0
  S2-  S2  1  0.52432000  0.54053333  0.13520000  1.0
  S2-  S2  1  0.52432000  0.87386667  0.13520000  1.0
  S2-  S2  1  0.72432000  0.20720000  0.13520000  1.0
  S2-  S2  1  0.72432000  0.54053333  0.13520000  1.0
  S2-  S2  1  0.72432000  0.87386667  0.13520000  1.0
  S2-  S2  1  0.92432000  0.20720000  0.13520000  1.0
  S2-  S2  1  0.92432000  0.54053333  0.13520000  1.0
  S2-  S2  1  0.92432000  0.87386667  0.13520000  1.0
  S2-  S2  1  0.12432000  0.04506667  0.62160000  1.0
  S2-  S2  1  0.12432000  0.37840000  0.62160000  1.0
  S2-  S2  1  0.12432000  0.71173333  0.62160000  1.0
  S2-  S2  1  0.32432000  0.04506667  0.62160000  1.0
  S2-  S2  1  0.32432000  0.37840000  0.62160000  1.0
  S2-  S2  1  0.32432000  0.71173333  0.62160000  1.0
  S2-  S2  1  0.52432000  0.04506667  0.62160000  1.0
  S2-  S2  1  0.52432000  0.37840000  0.62160000  1.0
  S2-  S2  1  0.52432000  0.71173333  0.62160000  1.0
  S2-  S2  1  0.72432000  0.04506667  0.62160000  1.0
  S2-  S2  1  0.72432000  0.37840000  0.62160000  1.0
  S2-  S2  1  0.72432000  0.71173333  0.62160000  1.0
  S2-  S2  1  0.92432000  0.04506667  0.62160000  1.0
  S2-  S2  1  0.92432000  0.37840000  0.62160000  1.0
  S2-  S2  1  0.92432000  0.71173333  0.62160000  1.0
  S2-  S2  1  0.12432000  0.20720000  0.62160000  1.0
  S2-  S2  1  0.12432000  0.54053333  0.62160000  1.0
  S2-  S2  1  0.12432000  0.87386667  0.62160000  1.0
  S2-  S2  1  0.32432000  0.20720000  0.62160000  1.0
  S2-  S2  1  0.32432000  0.54053333  0.62160000  1.0
  S2-  S2  1  0.32432000  0.87386667  0.62160000  1.0
  S2-  S2  1  0.52432000  0.20720000  0.62160000  1.0
  S2-  S2  1  0.52432000  0.54053333  0.62160000  1.0
  S2-  S2  1  0.52432000  0.87386667  0.62160000  1.0
  S2-  S2  1  0.72432000  0.20720000  0.62160000  1.0
  S2-  S2  1  0.72432000  0.54053333  0.62160000  1.0
  S2-  S2  1  0.72432000  0.87386667  0.62160000  1.0
  S2-  S2  1  0.92432000  0.20720000  0.62160000  1.0
  S2-  S2  1  0.92432000  0.54053333  0.62160000  1.0
  S2-  S2  1  0.92432000  0.87386667  0.62160000  1.0
  S2-  S2  1  0.02704000  0.20720000  0.62160000  1.0
  S2-  S2  1  0.02704000  0.54053333  0.62160000  1.0
  S2-  S2  1  0.02704000  0.87386667  0.62160000  1.0
  S2-  S2  1  0.22704000  0.20720000  0.62160000  1.0
  S2-  S2  1  0.22704000  0.54053333  0.62160000  1.0
  S2-  S2  1  0.22704000  0.87386667  0.62160000  1.0
  S2-  S2  1  0.42704000  0.20720000  0.62160000  1.0
  S2-  S2  1  0.42704000  0.54053333  0.62160000  1.0
  S2-  S2  1  0.42704000  0.87386667  0.62160000  1.0
  S2-  S2  1  0.62704000  0.20720000  0.62160000  1.0
  S2-  S2  1  0.62704000  0.54053333  0.62160000  1.0
  S2-  S2  1  0.62704000  0.87386667  0.62160000  1.0
  S2-  S2  1  0.82704000  0.20720000  0.62160000  1.0
  S2-  S2  1  0.82704000  0.54053333  0.62160000  1.0
  S2-  S2  1  0.82704000  0.87386667  0.62160000  1.0
  S2-  S56  1  0.80000000  0.00000000  1.00000000  1.0
  S2-  S56  1  0.80000000  0.33333333  0.00000000  1.0
  S2-  S56  1  0.80000000  0.66666667  0.00000000  1.0
  S2-  S57  1  0.05000000  0.08333333  0.25000000  1.0
  S2-  S57  1  0.05000000  0.41666667  0.25000000  1.0
  S2-  S57  1  0.05000000  0.75000000  0.25000000  1.0
  S2-  S58  1  0.45000000  0.08333333  0.25000000  1.0
  S2-  S58  1  0.45000000  0.41666667  0.25000000  1.0
  S2-  S58  1  0.45000000  0.75000000  0.25000000  1.0
  S2-  S59  1  0.65000000  0.08333333  0.25000000  1.0
  S2-  S59  1  0.65000000  0.41666667  0.25000000  1.0
  S2-  S59  1  0.65000000  0.75000000  0.25000000  1.0
  S2-  S60  1  0.85000000  0.08333333  0.25000000  1.0
  S2-  S60  1  0.85000000  0.41666667  0.25000000  1.0
  S2-  S60  1  0.85000000  0.75000000  0.25000000  1.0
  Br-  Br61  1  0.00000000  0.00000000  0.00000000  1.0
  Br-  Br61  1  0.00000000  0.33333333  0.00000000  1.0
  Br-  Br61  1  0.00000000  0.66666667  1.00000000  1.0
  Br-  Br62  1  0.20000000  0.00000000  0.00000000  1.0
  Br-  Br62  1  0.20000000  0.33333333  1.00000000  1.0
  Br-  Br62  1  0.20000000  0.66666667  0.00000000  1.0
  Br-  Br63  1  0.40000000  0.00000000  0.00000000  1.0
  Br-  Br63  1  0.40000000  0.33333333  0.00000000  1.0
  Br-  Br63  1  0.40000000  0.66666667  1.00000000  1.0
  Br-  Br64  1  0.60000000  0.00000000  0.00000000  1.0
  Br-  Br64  1  0.60000000  0.33333333  0.00000000  1.0
  Br-  Br64  1  0.60000000  0.66666667  0.00000000  1.0
  Br-  Br65  1  0.25000000  0.08333333  0.25000000  1.0
  Br-  Br65  1  0.25000000  0.41666667  0.25000000  1.0
  Br-  Br65  1  0.25000000  0.75000000  0.25000000  1.0
