# generated using pymatgen
data_Li7La3Zr2O12
_symmetry_space_group_name_H-M   'P 1'
_cell_length_a   22.48669602
_cell_length_b   11.24334801
_cell_length_c   11.24334801
_cell_angle_alpha   109.47122063
_cell_angle_beta   70.52877937
_cell_angle_gamma   70.52877937
_symmetry_Int_Tables_number   1
_chemical_formula_structural   Li7La3Zr2O12
_chemical_formula_sum   'Li56 La24 Zr16 O96'
_cell_volume   2188.24056766
_cell_formula_units_Z   8
loop_
 _symmetry_equiv_pos_site_id
 _symmetry_equiv_pos_as_xyz
  1  'x, y, z'
loop_
 _atom_type_symbol
 _atom_type_oxidation_number
  Li+  1.0
  La3+  3.0
  Zr4+  4.0
  O2-  -2.0
loop_
 _atom_site_type_symbol
 _atom_site_label
 _atom_site_symmetry_multiplicity
 _atom_site_fract_x
 _atom_site_fract_y
 _atom_site_fract_z
 _atom_site_occupancy
  Li+  Li0  1  0.39405000  0.33100000  0.98470000  1.0
  Li+  Li1  1  0.89405000  0.33100000  0.98470000  1.0
  Li+  Li2  1  0.04815000  0.16900000  0.13090000  1.0
  Li+  Li3  1  0.54459249  0.17322282  0.13618947  1.0
  Li+  Li4  1  0.35828014  0.51972418  0.87018465  1.0
  Li+  Li5  1  0.85595000  0.52280000  0.86910000  1.0
  Li+  Li6  1  0.33450000  0.73470000  0.46190000  1.0
  Li+  Li7  1  0.83450000  0.73470000  0.46190000  1.0
  Li+  Li8  1  0.23890811  0.61359913  0.53737940  1.0
  Li+  Li9  1  0.73860000  0.61910000  0.53810000  1.0
  Li+  Li10  1  0.44045000  0.09630000  0.08100000  1.0
  Li+  Li11  1  0.94045000  0.09630000  0.08100000  1.0
  Li+  Li12  1  0.36735000  0.78810000  0.91900000  1.0
  Li+  Li13  1  0.86714632  0.78511354  0.91785215  1.0
  Li+  Li14  1  0.29815000  0.02280000  0.48470000  1.0
  Li+  Li15  1  0.79815000  0.02280000  0.48470000  1.0
  Li+  Li16  1  0.16550000  0.26530000  0.03810000  1.0
  Li+  Li17  1  0.66550000  0.26530000  0.03810000  1.0
  Li+  Li18  1  0.26140000  0.38090000  0.96190000  1.0
  Li+  Li19  1  0.76140000  0.38090000  0.96190000  1.0
  Li+  Li20  1  0.16426396  0.40240035  0.63144375  1.0
  Li+  Li21  1  0.66962661  0.40688208  0.63100895  1.0
  Li+  Li22  1  0.30955000  0.66900000  0.65370000  1.0
  Li+  Li23  1  0.80955000  0.66900000  0.65370000  1.0
  Li+  Li24  1  0.19045000  0.33100000  0.84630000  1.0
  Li+  Li25  1  0.69045000  0.33100000  0.84630000  1.0
  Li+  Li26  1  0.05955000  0.97720000  0.46190000  1.0
  Li+  Li27  1  0.55884776  0.97613806  0.46376293  1.0
  Li+  Li28  1  0.11735000  0.16900000  0.53810000  1.0
  Li+  Li29  1  0.62012519  0.17110687  0.54140438  1.0
  Li+  Li30  1  0.04815000  0.73470000  0.77280000  1.0
  Li+  Li31  1  0.54815000  0.73470000  0.77280000  1.0
  Li+  Li32  1  0.39439146  0.87844915  0.22429160  1.0
  Li+  Li33  1  0.89405000  0.88090000  0.22720000  1.0
  Li+  Li34  1  0.37500000  0.87500000  0.37500000  1.0
  Li+  Li35  1  0.87500000  0.87500000  0.37500000  1.0
  Li+  Li36  1  0.12500000  0.62500000  0.62500000  1.0
  Li+  Li37  1  0.62500000  0.62500000  0.62500000  1.0
  Li+  Li38  1  0.18750000  0.37500000  0.00000000  1.0
  Li+  Li39  1  0.68552007  0.37435796  0.99900421  1.0
  Li+  Li40  1  0.06250000  0.12500000  0.50000000  1.0
  Li+  Li41  1  0.56250000  0.12500000  0.50000000  1.0
  Li+  Li42  1  0.31250000  0.75000000  0.87500000  1.0
  Li+  Li43  1  0.81250000  0.75000000  0.87500000  1.0
  Li+  Li44  1  0.43750000  0.25000000  0.12500000  1.0
  Li+  Li45  1  0.93750000  0.25000000  0.12500000  1.0
  Li+  Li46  1  0.12500000  0.12500000  0.12500000  1.0
  Li+  Li47  1  0.62500000  0.12500000  0.12500000  1.0
  Li+  Li48  1  0.31465782  0.62691090  0.50550085  1.0
  Li+  Li49  1  0.81250000  0.62500000  0.50000000  1.0
  Li+  Li50  1  0.43330792  0.87770162  0.00207322  1.0
  Li+  Li51  1  0.93750000  0.87500000  0.00000000  1.0
  Li+  Li52  1  0.18750000  0.25000000  0.62500000  1.0
  Li+  Li53  1  0.68750000  0.25000000  0.62500000  1.0
  Li+  Li54  1  0.06250000  0.75000000  0.37500000  1.0
  Li+  Li55  1  0.56250000  0.75000000  0.37500000  1.0
  La3+  La56  1  0.37500000  0.62500000  0.12500000  1.0
  La3+  La57  1  0.87500000  0.62500000  0.12500000  1.0
  La3+  La58  1  0.12707741  0.87587788  0.87649032  1.0
  La3+  La59  1  0.62500000  0.87500000  0.87500000  1.0
  La3+  La60  1  0.06213807  0.62519904  0.99872364  1.0
  La3+  La61  1  0.56250000  0.62500000  0.00000000  1.0
  La3+  La62  1  0.18750000  0.87500000  0.50000000  1.0
  La3+  La63  1  0.68750000  0.87500000  0.50000000  1.0
  La3+  La64  1  0.18655046  0.74384790  0.12517027  1.0
  La3+  La65  1  0.68750000  0.75000000  0.12500000  1.0
  La3+  La66  1  0.06250000  0.25000000  0.87500000  1.0
  La3+  La67  1  0.56250000  0.25000000  0.87500000  1.0
  La3+  La68  1  0.12500000  0.37500000  0.37500000  1.0
  La3+  La69  1  0.62534743  0.37564848  0.37458607  1.0
  La3+  La70  1  0.37500000  0.12500000  0.62500000  1.0
  La3+  La71  1  0.87500000  0.12500000  0.62500000  1.0
  La3+  La72  1  0.43998423  0.37641511  0.49769024  1.0
  La3+  La73  1  0.93750000  0.37500000  0.50000000  1.0
  La3+  La74  1  0.31250000  0.12500000  0.00000000  1.0
  La3+  La75  1  0.81250000  0.12500000  0.00000000  1.0
  La3+  La76  1  0.31250000  0.25000000  0.37500000  1.0
  La3+  La77  1  0.81250000  0.25000000  0.37500000  1.0
  La3+  La78  1  0.43750000  0.75000000  0.62500000  1.0
  La3+  La79  1  0.94219587  0.74956539  0.61807712  1.0
  Zr4+  Zr80  1  0.00000000  0.50000000  0.75000000  1.0
  Zr4+  Zr81  1  0.49881032  0.49834137  0.75327229  1.0
  Zr4+  Zr82  1  0.25000000  0.50000000  0.25000000  1.0
  Zr4+  Zr83  1  0.75000000  0.50000000  0.25000000  1.0
  Zr4+  Zr84  1  0.00000000  0.00000000  0.25000000  1.0
  Zr4+  Zr85  1  0.50000000  0.00000000  0.25000000  1.0
  Zr4+  Zr86  1  0.25000000  0.00000000  0.75000000  1.0
  Zr4+  Zr87  1  0.75000000  0.00000000  0.75000000  1.0
  Zr4+  Zr88  1  0.00000000  0.50000000  0.25000000  1.0
  Zr4+  Zr89  1  0.50039087  0.50383083  0.24762111  1.0
  Zr4+  Zr90  1  0.25342056  0.49694814  0.75039877  1.0
  Zr4+  Zr91  1  0.75000000  0.50000000  0.75000000  1.0
  Zr4+  Zr92  1  0.25000000  0.00000000  0.25000000  1.0
  Zr4+  Zr93  1  0.75050462  0.99610749  0.24520738  1.0
  Zr4+  Zr94  1  0.00532355  0.00130780  0.75567663  1.0
  Zr4+  Zr95  1  0.50180812  0.00275922  0.74975269  1.0
  O2-  O96  1  0.45185000  0.41457000  0.86847000  1.0
  O2-  O97  1  0.95185000  0.41457000  0.86847000  1.0
  O2-  O98  1  0.29815000  0.52217000  0.06827000  1.0
  O2-  O99  1  0.79815000  0.52217000  0.06827000  1.0
  O2-  O100  1  0.10195000  0.97783000  0.13153000  1.0
  O2-  O101  1  0.59851742  0.97744642  0.12891003  1.0
  O2-  O102  1  0.14805000  0.08543000  0.93173000  1.0
  O2-  O103  1  0.64805000  0.08543000  0.93173000  1.0
  O2-  O104  1  0.01108500  0.88153000  0.04610000  1.0
  O2-  O105  1  0.51108500  0.88153000  0.04610000  1.0
  O2-  O106  1  0.45728500  0.68173000  0.95390000  1.0
  O2-  O107  1  0.95728500  0.68173000  0.95390000  1.0
  O2-  O108  1  0.29271500  0.61847000  0.34630000  1.0
  O2-  O109  1  0.79271500  0.61847000  0.34630000  1.0
  O2-  O110  1  0.23891500  0.81827000  0.65370000  1.0
  O2-  O111  1  0.73891500  0.81827000  0.65370000  1.0
  O2-  O112  1  0.15644659  0.70266014  0.33678333  1.0
  O2-  O113  1  0.65913500  0.70390000  0.33543000  1.0
  O2-  O114  1  0.05923500  0.79610000  0.22783000  1.0
  O2-  O115  1  0.55923500  0.79610000  0.22783000  1.0
  O2-  O116  1  0.09086500  0.40370000  0.77217000  1.0
  O2-  O117  1  0.59086500  0.40370000  0.77217000  1.0
  O2-  O118  1  0.18931815  0.09649851  0.66805036  1.0
  O2-  O119  1  0.69076500  0.09630000  0.66457000  1.0
  O2-  O120  1  0.04815000  0.58543000  0.63153000  1.0
  O2-  O121  1  0.54815000  0.58543000  0.63153000  1.0
  O2-  O122  1  0.20185000  0.47783000  0.43173000  1.0
  O2-  O123  1  0.69945820  0.47746579  0.42911515  1.0
  O2-  O124  1  0.39805000  0.02217000  0.36847000  1.0
  O2-  O125  1  0.89805000  0.02217000  0.36847000  1.0
  O2-  O126  1  0.35195000  0.91457000  0.56827000  1.0
  O2-  O127  1  0.85195000  0.91457000  0.56827000  1.0
  O2-  O128  1  0.48891500  0.11847000  0.45390000  1.0
  O2-  O129  1  0.98891500  0.11847000  0.45390000  1.0
  O2-  O130  1  0.04271500  0.31827000  0.54610000  1.0
  O2-  O131  1  0.54271500  0.31827000  0.54610000  1.0
  O2-  O132  1  0.20728500  0.38153000  0.15370000  1.0
  O2-  O133  1  0.70728500  0.38153000  0.15370000  1.0
  O2-  O134  1  0.25936830  0.18474784  0.84881717  1.0
  O2-  O135  1  0.76033047  0.18414515  0.84642199  1.0
  O2-  O136  1  0.34086500  0.29610000  0.16457000  1.0
  O2-  O137  1  0.84086500  0.29610000  0.16457000  1.0
  O2-  O138  1  0.43999180  0.20146876  0.27042697  1.0
  O2-  O139  1  0.94076500  0.20390000  0.27217000  1.0
  O2-  O140  1  0.41288628  0.59681631  0.72902688  1.0
  O2-  O141  1  0.90913500  0.59630000  0.72783000  1.0
  O2-  O142  1  0.30856802  0.89752819  0.83574570  1.0
  O2-  O143  1  0.80923500  0.90370000  0.83543000  1.0
  O2-  O144  1  0.40913500  0.58543000  0.45390000  1.0
  O2-  O145  1  0.90913500  0.58543000  0.45390000  1.0
  O2-  O146  1  0.30809564  0.47797344  0.54249192  1.0
  O2-  O147  1  0.80923500  0.47783000  0.54610000  1.0
  O2-  O148  1  0.34086500  0.02217000  0.15370000  1.0
  O2-  O149  1  0.84086500  0.02217000  0.15370000  1.0
  O2-  O150  1  0.44076500  0.91457000  0.84630000  1.0
  O2-  O151  1  0.93989034  0.91508964  0.84583600  1.0
  O2-  O152  1  0.20185000  0.11847000  0.16457000  1.0
  O2-  O153  1  0.70348153  0.11525507  0.16002878  1.0
  O2-  O154  1  0.04801963  0.31515110  0.26865403  1.0
  O2-  O155  1  0.54815000  0.31827000  0.27217000  1.0
  O2-  O156  1  0.35195000  0.38153000  0.72783000  1.0
  O2-  O157  1  0.85263544  0.38117471  0.73154636  1.0
  O2-  O158  1  0.39805000  0.18173000  0.83543000  1.0
  O2-  O159  1  0.89805000  0.18173000  0.83543000  1.0
  O2-  O160  1  0.26108500  0.29610000  0.63153000  1.0
  O2-  O161  1  0.76108500  0.29610000  0.63153000  1.0
  O2-  O162  1  0.20728500  0.20390000  0.43173000  1.0
  O2-  O163  1  0.70573047  0.20616498  0.43338758  1.0
  O2-  O164  1  0.04271500  0.59630000  0.36847000  1.0
  O2-  O165  1  0.54271500  0.59630000  0.36847000  1.0
  O2-  O166  1  0.48891500  0.90370000  0.56827000  1.0
  O2-  O167  1  0.98891500  0.90370000  0.56827000  1.0
  O2-  O168  1  0.09086500  0.41457000  0.04610000  1.0
  O2-  O169  1  0.59086500  0.41457000  0.04610000  1.0
  O2-  O170  1  0.19008419  0.52528058  0.95469211  1.0
  O2-  O171  1  0.69186842  0.52460010  0.95579090  1.0
  O2-  O172  1  0.15913500  0.97783000  0.34630000  1.0
  O2-  O173  1  0.65913500  0.97783000  0.34630000  1.0
  O2-  O174  1  0.05666077  0.08390642  0.65511622  1.0
  O2-  O175  1  0.55923500  0.08543000  0.65370000  1.0
  O2-  O176  1  0.29900646  0.87944249  0.33633779  1.0
  O2-  O177  1  0.80019641  0.87969400  0.33022221  1.0
  O2-  O178  1  0.45200307  0.68415852  0.22595049  1.0
  O2-  O179  1  0.95185000  0.68173000  0.22783000  1.0
  O2-  O180  1  0.14805000  0.61847000  0.77217000  1.0
  O2-  O181  1  0.64875897  0.61636373  0.76765479  1.0
  O2-  O182  1  0.10195000  0.81827000  0.66457000  1.0
  O2-  O183  1  0.60195000  0.81827000  0.66457000  1.0
  O2-  O184  1  0.23891500  0.70390000  0.86847000  1.0
  O2-  O185  1  0.73891500  0.70390000  0.86847000  1.0
  O2-  O186  1  0.29187477  0.79096375  0.06683968  1.0
  O2-  O187  1  0.79271500  0.79610000  0.06827000  1.0
  O2-  O188  1  0.45728500  0.40370000  0.13153000  1.0
  O2-  O189  1  0.95728500  0.40370000  0.13153000  1.0
  O2-  O190  1  0.01191662  0.09559241  0.93439702  1.0
  O2-  O191  1  0.51108500  0.09630000  0.93173000  1.0
