# generated using pymatgen
data_Li7La3Zr2O12
_symmetry_space_group_name_H-M   'P 1'
_cell_length_a   11.24303932
_cell_length_b   22.48607865
_cell_length_c   11.24303932
_cell_angle_alpha   70.52877937
_cell_angle_beta   70.52877937
_cell_angle_gamma   109.47122063
_symmetry_Int_Tables_number   1
_chemical_formula_structural   Li7La3Zr2O12
_chemical_formula_sum   'Li56 La24 Zr16 O96'
_cell_volume   2188.06033689
_cell_formula_units_Z   8
loop_
 _symmetry_equiv_pos_site_id
 _symmetry_equiv_pos_as_xyz
  1  'x, y, z'
loop_
 _atom_type_symbol
 _atom_type_oxidation_number
  Li+  1.0
  La3+  3.0
  Zr4+  4.0
  O2-  -2.0
loop_
 _atom_site_type_symbol
 _atom_site_label
 _atom_site_symmetry_multiplicity
 _atom_site_fract_x
 _atom_site_fract_y
 _atom_site_fract_z
 _atom_site_occupancy
  Li+  Li0  1  0.23470000  0.27261667  0.66900000  1.0
  Li+  Li1  1  0.23470000  0.77261667  0.66900000  1.0
  Li+  Li2  1  0.38090000  0.61851667  0.83100000  1.0
  Li+  Li3  1  0.38090000  0.11851667  0.83100000  1.0
  Li+  Li4  1  0.11910000  0.31071667  0.47720000  1.0
  Li+  Li5  1  0.11910000  0.81071667  0.47720000  1.0
  Li+  Li6  1  0.71190000  0.33216667  0.26530000  1.0
  Li+  Li7  1  0.71190000  0.83216667  0.26530000  1.0
  Li+  Li8  1  0.78810000  0.42806667  0.38090000  1.0
  Li+  Li9  1  0.78810000  0.92806667  0.38090000  1.0
  Li+  Li10  1  0.33100000  0.22621667  0.90370000  1.0
  Li+  Li11  1  0.33100000  0.72621667  0.90370000  1.0
  Li+  Li12  1  0.16900000  0.29931667  0.21190000  1.0
  Li+  Li13  1  0.16900000  0.79931667  0.21190000  1.0
  Li+  Li14  1  0.73470000  0.36851667  0.97720000  1.0
  Li+  Li15  1  0.73470000  0.86851667  0.97720000  1.0
  Li+  Li16  1  0.28810000  0.50116667  0.73470000  1.0
  Li+  Li17  1  0.28810000  0.00116667  0.73470000  1.0
  Li+  Li18  1  0.21190000  0.40526667  0.61910000  1.0
  Li+  Li19  1  0.21190000  0.90526667  0.61910000  1.0
  Li+  Li20  1  0.88090000  0.50116667  0.59630000  1.0
  Li+  Li21  1  0.88090000  0.00116667  0.59630000  1.0
  Li+  Li22  1  0.90370000  0.35711667  0.33100000  1.0
  Li+  Li23  1  0.90370000  0.85711667  0.33100000  1.0
  Li+  Li24  1  0.09630000  0.47621667  0.66900000  1.0
  Li+  Li25  1  0.09630000  0.97621667  0.66900000  1.0
  Li+  Li26  1  0.71190000  0.60711667  0.02280000  1.0
  Li+  Li27  1  0.71190000  0.10711667  0.02280000  1.0
  Li+  Li28  1  0.78810000  0.54931667  0.83100000  1.0
  Li+  Li29  1  0.78810000  0.04931667  0.83100000  1.0
  Li+  Li30  1  0.02280000  0.61851667  0.26530000  1.0
  Li+  Li31  1  0.02280000  0.11851667  0.26530000  1.0
  Li+  Li32  1  0.47720000  0.27261667  0.11910000  1.0
  Li+  Li33  1  0.47720000  0.77261667  0.11910000  1.0
  Li+  Li34  1  0.62500000  0.29166667  0.12500000  1.0
  Li+  Li35  1  0.62500000  0.79166667  0.12500000  1.0
  Li+  Li36  1  0.87500000  0.54166667  0.37500000  1.0
  Li+  Li37  1  0.87500000  0.04166667  0.37500000  1.0
  Li+  Li38  1  0.25000000  0.47916667  0.62500000  1.0
  Li+  Li39  1  0.25000000  0.97916667  0.62500000  1.0
  Li+  Li40  1  0.75000000  0.60416667  0.87500000  1.0
  Li+  Li41  1  0.75000000  0.10416667  0.87500000  1.0
  Li+  Li42  1  0.12500000  0.35416667  0.25000000  1.0
  Li+  Li43  1  0.12500000  0.85416667  0.25000000  1.0
  Li+  Li44  1  0.37500000  0.22916667  0.75000000  1.0
  Li+  Li45  1  0.37500000  0.72916667  0.75000000  1.0
  Li+  Li46  1  0.37500000  0.54166667  0.87500000  1.0
  Li+  Li47  1  0.37500000  0.04166667  0.87500000  1.0
  Li+  Li48  1  0.75000000  0.35416667  0.37500000  1.0
  Li+  Li49  1  0.75000000  0.85416667  0.37500000  1.0
  Li+  Li50  1  0.25000000  0.22916667  0.12500000  1.0
  Li+  Li51  1  0.25000000  0.72916667  0.12500000  1.0
  Li+  Li52  1  0.87500000  0.47916667  0.75000000  1.0
  Li+  Li53  1  0.87500000  0.97916667  0.75000000  1.0
  Li+  Li54  1  0.62500000  0.60416667  0.25000000  1.0
  Li+  Li55  1  0.62500000  0.10416667  0.25000000  1.0
  La3+  La56  1  0.37500000  0.29166667  0.37500000  1.0
  La3+  La57  1  0.37500000  0.79166667  0.37500000  1.0
  La3+  La58  1  0.12500000  0.54166667  0.12500000  1.0
  La3+  La59  1  0.12500000  0.04166667  0.12500000  1.0
  La3+  La60  1  0.25000000  0.60416667  0.37500000  1.0
  La3+  La61  1  0.25000000  0.10416667  0.37500000  1.0
  La3+  La62  1  0.75000000  0.47916667  0.12500000  1.0
  La3+  La63  1  0.75000000  0.97916667  0.12500000  1.0
  La3+  La64  1  0.37500000  0.47916667  0.25000000  1.0
  La3+  La65  1  0.37500000  0.97916667  0.25000000  1.0
  La3+  La66  1  0.12500000  0.60416667  0.75000000  1.0
  La3+  La67  1  0.12500000  0.10416667  0.75000000  1.0
  La3+  La68  1  0.62500000  0.54166667  0.62500000  1.0
  La3+  La69  1  0.62500000  0.04166667  0.62500000  1.0
  La3+  La70  1  0.87500000  0.29166667  0.87500000  1.0
  La3+  La71  1  0.87500000  0.79166667  0.87500000  1.0
  La3+  La72  1  0.75000000  0.22916667  0.62500000  1.0
  La3+  La73  1  0.75000000  0.72916667  0.62500000  1.0
  La3+  La74  1  0.25000000  0.35416667  0.87500000  1.0
  La3+  La75  1  0.25000000  0.85416667  0.87500000  1.0
  La3+  La76  1  0.62500000  0.35416667  0.75000000  1.0
  La3+  La77  1  0.62500000  0.85416667  0.75000000  1.0
  La3+  La78  1  0.87500000  0.22916667  0.25000000  1.0
  La3+  La79  1  0.87500000  0.72916667  0.25000000  1.0
  Zr4+  Zr80  1  0.00000000  0.66666667  0.50000000  1.0
  Zr4+  Zr81  1  0.00000000  0.16666667  0.50000000  1.0
  Zr4+  Zr82  1  0.50000000  0.41666667  0.50000000  1.0
  Zr4+  Zr83  1  0.50000000  0.91666667  0.50000000  1.0
  Zr4+  Zr84  1  0.50000000  0.66666667  0.00000000  1.0
  Zr4+  Zr85  1  0.50000000  0.16666667  0.00000000  1.0
  Zr4+  Zr86  1  0.00000000  0.41666667  0.00000000  1.0
  Zr4+  Zr87  1  0.00000000  0.91666667  0.00000000  1.0
  Zr4+  Zr88  1  0.50000000  0.66666667  0.50000000  1.0
  Zr4+  Zr89  1  0.50000000  0.16666667  0.50000000  1.0
  Zr4+  Zr90  1  0.00000000  0.41666667  0.50000000  1.0
  Zr4+  Zr91  1  0.00000000  0.91666667  0.50000000  1.0
  Zr4+  Zr92  1  0.50000000  0.41666667  0.00000000  1.0
  Zr4+  Zr93  1  0.50000000  0.91666667  0.00000000  1.0
  Zr4+  Zr94  1  0.00000000  0.66666667  0.00000000  1.0
  Zr4+  Zr95  1  0.00000000  0.16666667  0.00000000  1.0
  O2-  O96  1  0.11847000  0.21481667  0.58543000  1.0
  O2-  O97  1  0.11847000  0.71481667  0.58543000  1.0
  O2-  O98  1  0.31827000  0.36851667  0.47783000  1.0
  O2-  O99  1  0.31827000  0.86851667  0.47783000  1.0
  O2-  O100  1  0.38153000  0.56471667  0.02217000  1.0
  O2-  O101  1  0.38153000  0.06471667  0.02217000  1.0
  O2-  O102  1  0.18173000  0.51861667  0.91457000  1.0
  O2-  O103  1  0.18173000  0.01861667  0.91457000  1.0
  O2-  O104  1  0.29610000  0.65558167  0.11847000  1.0
  O2-  O105  1  0.29610000  0.15558167  0.11847000  1.0
  O2-  O106  1  0.20390000  0.20938167  0.31827000  1.0
  O2-  O107  1  0.20390000  0.70938167  0.31827000  1.0
  O2-  O108  1  0.59630000  0.37395167  0.38153000  1.0
  O2-  O109  1  0.59630000  0.87395167  0.38153000  1.0
  O2-  O110  1  0.90370000  0.42775167  0.18173000  1.0
  O2-  O111  1  0.90370000  0.92775167  0.18173000  1.0
  O2-  O112  1  0.58543000  0.50753167  0.29610000  1.0
  O2-  O113  1  0.58543000  0.00753167  0.29610000  1.0
  O2-  O114  1  0.47783000  0.60743167  0.20390000  1.0
  O2-  O115  1  0.47783000  0.10743167  0.20390000  1.0
  O2-  O116  1  0.02217000  0.57580167  0.59630000  1.0
  O2-  O117  1  0.02217000  0.07580167  0.59630000  1.0
  O2-  O118  1  0.91457000  0.47590167  0.90370000  1.0
  O2-  O119  1  0.91457000  0.97590167  0.90370000  1.0
  O2-  O120  1  0.88153000  0.61851667  0.41457000  1.0
  O2-  O121  1  0.88153000  0.11851667  0.41457000  1.0
  O2-  O122  1  0.68173000  0.46481667  0.52217000  1.0
  O2-  O123  1  0.68173000  0.96481667  0.52217000  1.0
  O2-  O124  1  0.61847000  0.26861667  0.97783000  1.0
  O2-  O125  1  0.61847000  0.76861667  0.97783000  1.0
  O2-  O126  1  0.81827000  0.31471667  0.08543000  1.0
  O2-  O127  1  0.81827000  0.81471667  0.08543000  1.0
  O2-  O128  1  0.70390000  0.17775167  0.88153000  1.0
  O2-  O129  1  0.70390000  0.67775167  0.88153000  1.0
  O2-  O130  1  0.79610000  0.62395167  0.68173000  1.0
  O2-  O131  1  0.79610000  0.12395167  0.68173000  1.0
  O2-  O132  1  0.40370000  0.45938167  0.61847000  1.0
  O2-  O133  1  0.40370000  0.95938167  0.61847000  1.0
  O2-  O134  1  0.09630000  0.40558167  0.81827000  1.0
  O2-  O135  1  0.09630000  0.90558167  0.81827000  1.0
  O2-  O136  1  0.41457000  0.32580167  0.70390000  1.0
  O2-  O137  1  0.41457000  0.82580167  0.70390000  1.0
  O2-  O138  1  0.52217000  0.22590167  0.79610000  1.0
  O2-  O139  1  0.52217000  0.72590167  0.79610000  1.0
  O2-  O140  1  0.97783000  0.25753167  0.40370000  1.0
  O2-  O141  1  0.97783000  0.75753167  0.40370000  1.0
  O2-  O142  1  0.08543000  0.35743167  0.09630000  1.0
  O2-  O143  1  0.08543000  0.85743167  0.09630000  1.0
  O2-  O144  1  0.70390000  0.25753167  0.41457000  1.0
  O2-  O145  1  0.70390000  0.75753167  0.41457000  1.0
  O2-  O146  1  0.79610000  0.35743167  0.52217000  1.0
  O2-  O147  1  0.79610000  0.85743167  0.52217000  1.0
  O2-  O148  1  0.40370000  0.32580167  0.97783000  1.0
  O2-  O149  1  0.40370000  0.82580167  0.97783000  1.0
  O2-  O150  1  0.09630000  0.22590167  0.08543000  1.0
  O2-  O151  1  0.09630000  0.72590167  0.08543000  1.0
  O2-  O152  1  0.41457000  0.46481667  0.88153000  1.0
  O2-  O153  1  0.41457000  0.96481667  0.88153000  1.0
  O2-  O154  1  0.52217000  0.61851667  0.68173000  1.0
  O2-  O155  1  0.52217000  0.11851667  0.68173000  1.0
  O2-  O156  1  0.97783000  0.31471667  0.61847000  1.0
  O2-  O157  1  0.97783000  0.81471667  0.61847000  1.0
  O2-  O158  1  0.08543000  0.26861667  0.81827000  1.0
  O2-  O159  1  0.08543000  0.76861667  0.81827000  1.0
  O2-  O160  1  0.88153000  0.40558167  0.70390000  1.0
  O2-  O161  1  0.88153000  0.90558167  0.70390000  1.0
  O2-  O162  1  0.68173000  0.45938167  0.79610000  1.0
  O2-  O163  1  0.68173000  0.95938167  0.79610000  1.0
  O2-  O164  1  0.61847000  0.62395167  0.40370000  1.0
  O2-  O165  1  0.61847000  0.12395167  0.40370000  1.0
  O2-  O166  1  0.81827000  0.17775167  0.09630000  1.0
  O2-  O167  1  0.81827000  0.67775167  0.09630000  1.0
  O2-  O168  1  0.29610000  0.57580167  0.58543000  1.0
  O2-  O169  1  0.29610000  0.07580167  0.58543000  1.0
  O2-  O170  1  0.20390000  0.47590167  0.47783000  1.0
  O2-  O171  1  0.20390000  0.97590167  0.47783000  1.0
  O2-  O172  1  0.59630000  0.50753167  0.02217000  1.0
  O2-  O173  1  0.59630000  0.00753167  0.02217000  1.0
  O2-  O174  1  0.90370000  0.60743167  0.91457000  1.0
  O2-  O175  1  0.90370000  0.10743167  0.91457000  1.0
  O2-  O176  1  0.58543000  0.36851667  0.11847000  1.0
  O2-  O177  1  0.58543000  0.86851667  0.11847000  1.0
  O2-  O178  1  0.47783000  0.21481667  0.31827000  1.0
  O2-  O179  1  0.47783000  0.71481667  0.31827000  1.0
  O2-  O180  1  0.02217000  0.51861667  0.38153000  1.0
  O2-  O181  1  0.02217000  0.01861667  0.38153000  1.0
  O2-  O182  1  0.91457000  0.56471667  0.18173000  1.0
  O2-  O183  1  0.91457000  0.06471667  0.18173000  1.0
  O2-  O184  1  0.11847000  0.42775167  0.29610000  1.0
  O2-  O185  1  0.11847000  0.92775167  0.29610000  1.0
  O2-  O186  1  0.31827000  0.37395167  0.20390000  1.0
  O2-  O187  1  0.31827000  0.87395167  0.20390000  1.0
  O2-  O188  1  0.38153000  0.20938167  0.59630000  1.0
  O2-  O189  1  0.38153000  0.70938167  0.59630000  1.0
  O2-  O190  1  0.18173000  0.65558167  0.90370000  1.0
  O2-  O191  1  0.18173000  0.15558167  0.90370000  1.0
