# generated using pymatgen
data_Li7La3Zr2O12
_symmetry_space_group_name_H-M   'P 1'
_cell_length_a   22.48669602
_cell_length_b   11.24334801
_cell_length_c   11.24334801
_cell_angle_alpha   109.47122063
_cell_angle_beta   109.47122063
_cell_angle_gamma   109.47122063
_symmetry_Int_Tables_number   1
_chemical_formula_structural   Li7La3Zr2O12
_chemical_formula_sum   'Li56 La24 Zr16 O96'
_cell_volume   2188.24056766
_cell_formula_units_Z   8
loop_
 _symmetry_equiv_pos_site_id
 _symmetry_equiv_pos_as_xyz
  1  'x, y, z'
loop_
 _atom_type_symbol
 _atom_type_oxidation_number
  Li+  1.0
  La3+  3.0
  Zr4+  4.0
  O2-  -2.0
loop_
 _atom_site_type_symbol
 _atom_site_label
 _atom_site_symmetry_multiplicity
 _atom_site_fract_x
 _atom_site_fract_y
 _atom_site_fract_z
 _atom_site_occupancy
  Li+  Li0  1  0.39405000  0.76530000  0.66900000  1.0
  Li+  Li0  1  0.89405000  0.76530000  0.66900000  1.0
  Li+  Li1  1  0.04815000  0.61910000  0.83100000  1.0
  Li+  Li1  1  0.54815000  0.61910000  0.83100000  1.0
  Li+  Li2  1  0.35595000  0.88090000  0.47720000  1.0
  Li+  Li2  1  0.85595000  0.88090000  0.47720000  1.0
  Li+  Li3  1  0.33450000  0.28810000  0.26530000  1.0
  Li+  Li3  1  0.83450000  0.28810000  0.26530000  1.0
  Li+  Li4  1  0.23860000  0.21190000  0.38090000  1.0
  Li+  Li4  1  0.73860000  0.21190000  0.38090000  1.0
  Li+  Li5  1  0.44045000  0.66900000  0.90370000  1.0
  Li+  Li5  1  0.94045000  0.66900000  0.90370000  1.0
  Li+  Li6  1  0.36735000  0.83100000  0.21190000  1.0
  Li+  Li6  1  0.86735000  0.83100000  0.21190000  1.0
  Li+  Li7  1  0.29815000  0.26530000  0.97720000  1.0
  Li+  Li7  1  0.79815000  0.26530000  0.97720000  1.0
  Li+  Li8  1  0.16550000  0.71190000  0.73470000  1.0
  Li+  Li8  1  0.66550000  0.71190000  0.73470000  1.0
  Li+  Li9  1  0.26140000  0.78810000  0.61910000  1.0
  Li+  Li9  1  0.76140000  0.78810000  0.61910000  1.0
  Li+  Li10  1  0.16550000  0.11910000  0.59630000  1.0
  Li+  Li10  1  0.66550000  0.11910000  0.59630000  1.0
  Li+  Li11  1  0.30955000  0.09630000  0.33100000  1.0
  Li+  Li11  1  0.80955000  0.09630000  0.33100000  1.0
  Li+  Li12  1  0.19045000  0.90370000  0.66900000  1.0
  Li+  Li12  1  0.69045000  0.90370000  0.66900000  1.0
  Li+  Li13  1  0.05955000  0.28810000  0.02280000  1.0
  Li+  Li13  1  0.55955000  0.28810000  0.02280000  1.0
  Li+  Li14  1  0.11735000  0.21190000  0.83100000  1.0
  Li+  Li14  1  0.61735000  0.21190000  0.83100000  1.0
  Li+  Li15  1  0.04815000  0.97720000  0.26530000  1.0
  Li+  Li15  1  0.54815000  0.97720000  0.26530000  1.0
  Li+  Li16  1  0.39405000  0.52280000  0.11910000  1.0
  Li+  Li16  1  0.89405000  0.52280000  0.11910000  1.0
  Li+  Li17  1  0.37500000  0.37500000  0.12500000  1.0
  Li+  Li17  1  0.87500000  0.37500000  0.12500000  1.0
  Li+  Li18  1  0.12500000  0.12500000  0.37500000  1.0
  Li+  Li18  1  0.62500000  0.12500000  0.37500000  1.0
  Li+  Li19  1  0.18750000  0.75000000  0.62500000  1.0
  Li+  Li19  1  0.68750000  0.75000000  0.62500000  1.0
  Li+  Li20  1  0.06250000  0.25000000  0.87500000  1.0
  Li+  Li20  1  0.56250000  0.25000000  0.87500000  1.0
  Li+  Li21  1  0.31250000  0.87500000  0.25000000  1.0
  Li+  Li21  1  0.81250000  0.87500000  0.25000000  1.0
  Li+  Li22  1  0.43750000  0.62500000  0.75000000  1.0
  Li+  Li22  1  0.93750000  0.62500000  0.75000000  1.0
  Li+  Li23  1  0.12500000  0.62500000  0.87500000  1.0
  Li+  Li23  1  0.62500000  0.62500000  0.87500000  1.0
  Li+  Li24  1  0.31250000  0.25000000  0.37500000  1.0
  Li+  Li24  1  0.81250000  0.25000000  0.37500000  1.0
  Li+  Li25  1  0.43750000  0.75000000  0.12500000  1.0
  Li+  Li25  1  0.93750000  0.75000000  0.12500000  1.0
  Li+  Li26  1  0.18750000  0.12500000  0.75000000  1.0
  Li+  Li26  1  0.68750000  0.12500000  0.75000000  1.0
  Li+  Li27  1  0.06250000  0.37500000  0.25000000  1.0
  Li+  Li27  1  0.56250000  0.37500000  0.25000000  1.0
  La3+  La1  1  0.37500000  0.62500000  0.37500000  1.0
  La3+  La1  1  0.87500000  0.62500000  0.37500000  1.0
  La3+  La1  1  0.12500000  0.87500000  0.12500000  1.0
  La3+  La1  1  0.62500000  0.87500000  0.12500000  1.0
  La3+  La1  1  0.06250000  0.75000000  0.37500000  1.0
  La3+  La1  1  0.56250000  0.75000000  0.37500000  1.0
  La3+  La1  1  0.18750000  0.25000000  0.12500000  1.0
  La3+  La1  1  0.68750000  0.25000000  0.12500000  1.0
  La3+  La1  1  0.18750000  0.62500000  0.25000000  1.0
  La3+  La1  1  0.68750000  0.62500000  0.25000000  1.0
  La3+  La1  1  0.06250000  0.87500000  0.75000000  1.0
  La3+  La1  1  0.56250000  0.87500000  0.75000000  1.0
  La3+  La1  1  0.12500000  0.37500000  0.62500000  1.0
  La3+  La1  1  0.62500000  0.37500000  0.62500000  1.0
  La3+  La1  1  0.37500000  0.12500000  0.87500000  1.0
  La3+  La1  1  0.87500000  0.12500000  0.87500000  1.0
  La3+  La1  1  0.43750000  0.25000000  0.62500000  1.0
  La3+  La1  1  0.93750000  0.25000000  0.62500000  1.0
  La3+  La1  1  0.31250000  0.75000000  0.87500000  1.0
  La3+  La1  1  0.81250000  0.75000000  0.87500000  1.0
  La3+  La1  1  0.31250000  0.37500000  0.75000000  1.0
  La3+  La1  1  0.81250000  0.37500000  0.75000000  1.0
  La3+  La1  1  0.43750000  0.12500000  0.25000000  1.0
  La3+  La1  1  0.93750000  0.12500000  0.25000000  1.0
  Zr4+  Zr1  1  0.00000000  0.00000000  0.50000000  1.0
  Zr4+  Zr1  1  0.50000000  0.00000000  0.50000000  1.0
  Zr4+  Zr1  1  0.25000000  0.50000000  0.50000000  1.0
  Zr4+  Zr1  1  0.75000000  0.50000000  0.50000000  1.0
  Zr4+  Zr1  1  0.00000000  0.50000000  0.00000000  1.0
  Zr4+  Zr1  1  0.50000000  0.50000000  0.00000000  1.0
  Zr4+  Zr1  1  0.25000000  0.00000000  0.00000000  1.0
  Zr4+  Zr1  1  0.75000000  0.00000000  0.00000000  1.0
  Zr4+  Zr1  1  0.00000000  0.50000000  0.50000000  1.0
  Zr4+  Zr1  1  0.50000000  0.50000000  0.50000000  1.0
  Zr4+  Zr1  1  0.25000000  0.00000000  0.50000000  1.0
  Zr4+  Zr1  1  0.75000000  0.00000000  0.50000000  1.0
  Zr4+  Zr1  1  0.25000000  0.50000000  0.00000000  1.0
  Zr4+  Zr1  1  0.75000000  0.50000000  0.00000000  1.0
  Zr4+  Zr1  1  0.00000000  0.00000000  0.00000000  1.0
  Zr4+  Zr1  1  0.50000000  0.00000000  0.00000000  1.0
  O2-  O1  1  0.45185000  0.88153000  0.58543000  1.0
  O2-  O1  1  0.95185000  0.88153000  0.58543000  1.0
  O2-  O1  1  0.29815000  0.68173000  0.47783000  1.0
  O2-  O1  1  0.79815000  0.68173000  0.47783000  1.0
  O2-  O1  1  0.10195000  0.61847000  0.02217000  1.0
  O2-  O1  1  0.60195000  0.61847000  0.02217000  1.0
  O2-  O1  1  0.14805000  0.81827000  0.91457000  1.0
  O2-  O1  1  0.64805000  0.81827000  0.91457000  1.0
  O2-  O1  1  0.01108500  0.70390000  0.11847000  1.0
  O2-  O1  1  0.51108500  0.70390000  0.11847000  1.0
  O2-  O1  1  0.45728500  0.79610000  0.31827000  1.0
  O2-  O1  1  0.95728500  0.79610000  0.31827000  1.0
  O2-  O1  1  0.29271500  0.40370000  0.38153000  1.0
  O2-  O1  1  0.79271500  0.40370000  0.38153000  1.0
  O2-  O1  1  0.23891500  0.09630000  0.18173000  1.0
  O2-  O1  1  0.73891500  0.09630000  0.18173000  1.0
  O2-  O1  1  0.15913500  0.41457000  0.29610000  1.0
  O2-  O1  1  0.65913500  0.41457000  0.29610000  1.0
  O2-  O1  1  0.05923500  0.52217000  0.20390000  1.0
  O2-  O1  1  0.55923500  0.52217000  0.20390000  1.0
  O2-  O1  1  0.09086500  0.97783000  0.59630000  1.0
  O2-  O1  1  0.59086500  0.97783000  0.59630000  1.0
  O2-  O1  1  0.19076500  0.08543000  0.90370000  1.0
  O2-  O1  1  0.69076500  0.08543000  0.90370000  1.0
  O2-  O1  1  0.04815000  0.11847000  0.41457000  1.0
  O2-  O1  1  0.54815000  0.11847000  0.41457000  1.0
  O2-  O1  1  0.20185000  0.31827000  0.52217000  1.0
  O2-  O1  1  0.70185000  0.31827000  0.52217000  1.0
  O2-  O1  1  0.39805000  0.38153000  0.97783000  1.0
  O2-  O1  1  0.89805000  0.38153000  0.97783000  1.0
  O2-  O1  1  0.35195000  0.18173000  0.08543000  1.0
  O2-  O1  1  0.85195000  0.18173000  0.08543000  1.0
  O2-  O1  1  0.48891500  0.29610000  0.88153000  1.0
  O2-  O1  1  0.98891500  0.29610000  0.88153000  1.0
  O2-  O1  1  0.04271500  0.20390000  0.68173000  1.0
  O2-  O1  1  0.54271500  0.20390000  0.68173000  1.0
  O2-  O1  1  0.20728500  0.59630000  0.61847000  1.0
  O2-  O1  1  0.70728500  0.59630000  0.61847000  1.0
  O2-  O1  1  0.26108500  0.90370000  0.81827000  1.0
  O2-  O1  1  0.76108500  0.90370000  0.81827000  1.0
  O2-  O1  1  0.34086500  0.58543000  0.70390000  1.0
  O2-  O1  1  0.84086500  0.58543000  0.70390000  1.0
  O2-  O1  1  0.44076500  0.47783000  0.79610000  1.0
  O2-  O1  1  0.94076500  0.47783000  0.79610000  1.0
  O2-  O1  1  0.40913500  0.02217000  0.40370000  1.0
  O2-  O1  1  0.90913500  0.02217000  0.40370000  1.0
  O2-  O1  1  0.30923500  0.91457000  0.09630000  1.0
  O2-  O1  1  0.80923500  0.91457000  0.09630000  1.0
  O2-  O1  1  0.40913500  0.29610000  0.41457000  1.0
  O2-  O1  1  0.90913500  0.29610000  0.41457000  1.0
  O2-  O1  1  0.30923500  0.20390000  0.52217000  1.0
  O2-  O1  1  0.80923500  0.20390000  0.52217000  1.0
  O2-  O1  1  0.34086500  0.59630000  0.97783000  1.0
  O2-  O1  1  0.84086500  0.59630000  0.97783000  1.0
  O2-  O1  1  0.44076500  0.90370000  0.08543000  1.0
  O2-  O1  1  0.94076500  0.90370000  0.08543000  1.0
  O2-  O1  1  0.20185000  0.58543000  0.88153000  1.0
  O2-  O1  1  0.70185000  0.58543000  0.88153000  1.0
  O2-  O1  1  0.04815000  0.47783000  0.68173000  1.0
  O2-  O1  1  0.54815000  0.47783000  0.68173000  1.0
  O2-  O1  1  0.35195000  0.02217000  0.61847000  1.0
  O2-  O1  1  0.85195000  0.02217000  0.61847000  1.0
  O2-  O1  1  0.39805000  0.91457000  0.81827000  1.0
  O2-  O1  1  0.89805000  0.91457000  0.81827000  1.0
  O2-  O1  1  0.26108500  0.11847000  0.70390000  1.0
  O2-  O1  1  0.76108500  0.11847000  0.70390000  1.0
  O2-  O1  1  0.20728500  0.31827000  0.79610000  1.0
  O2-  O1  1  0.70728500  0.31827000  0.79610000  1.0
  O2-  O1  1  0.04271500  0.38153000  0.40370000  1.0
  O2-  O1  1  0.54271500  0.38153000  0.40370000  1.0
  O2-  O1  1  0.48891500  0.18173000  0.09630000  1.0
  O2-  O1  1  0.98891500  0.18173000  0.09630000  1.0
  O2-  O1  1  0.09086500  0.70390000  0.58543000  1.0
  O2-  O1  1  0.59086500  0.70390000  0.58543000  1.0
  O2-  O1  1  0.19076500  0.79610000  0.47783000  1.0
  O2-  O1  1  0.69076500  0.79610000  0.47783000  1.0
  O2-  O1  1  0.15913500  0.40370000  0.02217000  1.0
  O2-  O1  1  0.65913500  0.40370000  0.02217000  1.0
  O2-  O1  1  0.05923500  0.09630000  0.91457000  1.0
  O2-  O1  1  0.55923500  0.09630000  0.91457000  1.0
  O2-  O1  1  0.29815000  0.41457000  0.11847000  1.0
  O2-  O1  1  0.79815000  0.41457000  0.11847000  1.0
  O2-  O1  1  0.45185000  0.52217000  0.31827000  1.0
  O2-  O1  1  0.95185000  0.52217000  0.31827000  1.0
  O2-  O1  1  0.14805000  0.97783000  0.38153000  1.0
  O2-  O1  1  0.64805000  0.97783000  0.38153000  1.0
  O2-  O1  1  0.10195000  0.08543000  0.18173000  1.0
  O2-  O1  1  0.60195000  0.08543000  0.18173000  1.0
  O2-  O1  1  0.23891500  0.88153000  0.29610000  1.0
  O2-  O1  1  0.73891500  0.88153000  0.29610000  1.0
  O2-  O1  1  0.29271500  0.68173000  0.20390000  1.0
  O2-  O1  1  0.79271500  0.68173000  0.20390000  1.0
  O2-  O1  1  0.45728500  0.61847000  0.59630000  1.0
  O2-  O1  1  0.95728500  0.61847000  0.59630000  1.0
  O2-  O1  1  0.01108500  0.81827000  0.90370000  1.0
  O2-  O1  1  0.51108500  0.81827000  0.90370000  1.0
