# generated using pymatgen
data_LiAl(Si2O5)2
_symmetry_space_group_name_H-M   'P 1'
_cell_length_a   10.27920000
_cell_length_b   11.22955000
_cell_length_c   22.88429142
_cell_angle_alpha   105.64301240
_cell_angle_beta   90.00000000
_cell_angle_gamma   90.00000000
_symmetry_Int_Tables_number   1
_chemical_formula_structural   LiAl(Si2O5)2
_chemical_formula_sum   'Li12 Al12 Si48 O120'
_cell_volume   2543.70986174
_cell_formula_units_Z   12
loop_
 _symmetry_equiv_pos_site_id
 _symmetry_equiv_pos_as_xyz
  1  'x, y, z'
loop_
 _atom_type_symbol
 _atom_type_oxidation_number
  Li+  1.0
  Al3+  3.0
  Si4+  4.0
  O2-  -2.0
loop_
 _atom_site_type_symbol
 _atom_site_label
 _atom_site_symmetry_multiplicity
 _atom_site_fract_x
 _atom_site_fract_y
 _atom_site_fract_z
 _atom_site_occupancy
  Li+  Li0  1  0.37900000  0.25000000  0.66666667  1.0
  Li+  Li1  1  0.37994525  0.25293238  0.33066855  1.0
  Li+  Li2  1  0.37900000  0.25000000  0.00000000  1.0
  Li+  Li3  1  0.87900000  0.25000000  0.66666667  1.0
  Li+  Li4  1  0.87900000  0.25000000  0.33333333  1.0
  Li+  Li5  1  0.87900000  0.25000000  0.00000000  1.0
  Li+  Li6  1  0.12100000  0.75000000  0.50000000  1.0
  Li+  Li7  1  0.12100000  0.75000000  0.16666667  1.0
  Li+  Li8  1  0.12100000  0.75000000  0.83333333  1.0
  Li+  Li9  1  0.62100000  0.75000000  0.50000000  1.0
  Li+  Li10  1  0.62100000  0.75000000  0.16666667  1.0
  Li+  Li11  1  0.62100000  0.75000000  0.83333333  1.0
  Al3+  Al12  1  0.12800000  0.25000000  0.66666667  1.0
  Al3+  Al13  1  0.12800000  0.25000000  0.33333333  1.0
  Al3+  Al14  1  0.12800000  0.25000000  0.00000000  1.0
  Al3+  Al15  1  0.62800000  0.25000000  0.66666667  1.0
  Al3+  Al16  1  0.62800000  0.25000000  0.33333333  1.0
  Al3+  Al17  1  0.62800000  0.25000000  0.00000000  1.0
  Al3+  Al18  1  0.37186322  0.74944784  0.50214868  1.0
  Al3+  Al19  1  0.37466609  0.75199408  0.16553692  1.0
  Al3+  Al20  1  0.37200000  0.75000000  0.83333333  1.0
  Al3+  Al21  1  0.87200000  0.75000000  0.50000000  1.0
  Al3+  Al22  1  0.87200000  0.75000000  0.16666667  1.0
  Al3+  Al23  1  0.86985399  0.74957777  0.82997609  1.0
  Si4+  Si24  1  0.00625000  0.50250000  0.51373333  1.0
  Si4+  Si25  1  0.00625000  0.50250000  0.18040000  1.0
  Si4+  Si26  1  0.00985999  0.50048650  0.84765332  1.0
  Si4+  Si27  1  0.50625000  0.50250000  0.51373333  1.0
  Si4+  Si28  1  0.50625000  0.50250000  0.18040000  1.0
  Si4+  Si29  1  0.50625000  0.50250000  0.84706667  1.0
  Si4+  Si30  1  0.00625000  0.99750000  0.48626667  1.0
  Si4+  Si31  1  0.00625000  0.99750000  0.15293333  1.0
  Si4+  Si32  1  0.00625000  0.99750000  0.81960000  1.0
  Si4+  Si33  1  0.50625000  0.99750000  0.48626667  1.0
  Si4+  Si34  1  0.50625000  0.99750000  0.15293333  1.0
  Si4+  Si35  1  0.50625000  0.99750000  0.81960000  1.0
  Si4+  Si36  1  0.49375000  0.49750000  0.65293333  1.0
  Si4+  Si37  1  0.49375000  0.49750000  0.31960000  1.0
  Si4+  Si38  1  0.49155303  0.49408961  0.98571142  1.0
  Si4+  Si39  1  0.99375000  0.49750000  0.65293333  1.0
  Si4+  Si40  1  0.99375000  0.49750000  0.31960000  1.0
  Si4+  Si41  1  0.99375000  0.49750000  0.98626667  1.0
  Si4+  Si42  1  0.49375000  0.00250000  0.68040000  1.0
  Si4+  Si43  1  0.49375000  0.00250000  0.34706667  1.0
  Si4+  Si44  1  0.49375000  0.00250000  0.01373333  1.0
  Si4+  Si45  1  0.99375000  0.00250000  0.68040000  1.0
  Si4+  Si46  1  0.99155978  0.00267741  0.34282095  1.0
  Si4+  Si47  1  0.99375000  0.00250000  0.01373333  1.0
  Si4+  Si48  1  0.25485000  0.35220000  0.46406667  1.0
  Si4+  Si49  1  0.25485000  0.35220000  0.13073333  1.0
  Si4+  Si50  1  0.25339744  0.35376567  0.79871876  1.0
  Si4+  Si51  1  0.75176585  0.34980683  0.46177804  1.0
  Si4+  Si52  1  0.75635209  0.34953597  0.13770869  1.0
  Si4+  Si53  1  0.75485000  0.35220000  0.79740000  1.0
  Si4+  Si54  1  0.25485000  0.14780000  0.53593333  1.0
  Si4+  Si55  1  0.25485000  0.14780000  0.20260000  1.0
  Si4+  Si56  1  0.25485000  0.14780000  0.86926667  1.0
  Si4+  Si57  1  0.75485000  0.14780000  0.53593333  1.0
  Si4+  Si58  1  0.75678406  0.14978733  0.20656002  1.0
  Si4+  Si59  1  0.75344611  0.14812643  0.87232325  1.0
  Si4+  Si60  1  0.24515000  0.64780000  0.70260000  1.0
  Si4+  Si61  1  0.24280367  0.64683556  0.37237231  1.0
  Si4+  Si62  1  0.24515000  0.64780000  0.03593333  1.0
  Si4+  Si63  1  0.74515000  0.64780000  0.70260000  1.0
  Si4+  Si64  1  0.74515000  0.64780000  0.36926667  1.0
  Si4+  Si65  1  0.74515000  0.64780000  0.03593333  1.0
  Si4+  Si66  1  0.24669485  0.85161541  0.63599624  1.0
  Si4+  Si67  1  0.24175275  0.84895842  0.29609219  1.0
  Si4+  Si68  1  0.24515000  0.85220000  0.96406667  1.0
  Si4+  Si69  1  0.74118383  0.85098747  0.63069627  1.0
  Si4+  Si70  1  0.74515000  0.85220000  0.29740000  1.0
  Si4+  Si71  1  0.74515000  0.85220000  0.96406667  1.0
  O2-  O72  1  0.48175000  0.63980000  0.50740000  1.0
  O2-  O73  1  0.48175000  0.63980000  0.17406667  1.0
  O2-  O74  1  0.48175000  0.63980000  0.84073333  1.0
  O2-  O75  1  0.98175000  0.63980000  0.50740000  1.0
  O2-  O76  1  0.98175000  0.63980000  0.17406667  1.0
  O2-  O77  1  0.98047355  0.63995418  0.83985539  1.0
  O2-  O78  1  0.48175000  0.86020000  0.49260000  1.0
  O2-  O79  1  0.48175000  0.86020000  0.15926667  1.0
  O2-  O80  1  0.48175000  0.86020000  0.82593333  1.0
  O2-  O81  1  0.98175000  0.86020000  0.49260000  1.0
  O2-  O82  1  0.98175000  0.86020000  0.15926667  1.0
  O2-  O83  1  0.98175000  0.86020000  0.82593333  1.0
  O2-  O84  1  0.01630193  0.36033052  0.65888925  1.0
  O2-  O85  1  0.02065042  0.36055252  0.32490533  1.0
  O2-  O86  1  0.01825000  0.36020000  0.99260000  1.0
  O2-  O87  1  0.51825000  0.36020000  0.65926667  1.0
  O2-  O88  1  0.51825000  0.36020000  0.32593333  1.0
  O2-  O89  1  0.51825000  0.36020000  0.99260000  1.0
  O2-  O90  1  0.01825000  0.13980000  0.67406667  1.0
  O2-  O91  1  0.01825000  0.13980000  0.34073333  1.0
  O2-  O92  1  0.01825000  0.13980000  0.00740000  1.0
  O2-  O93  1  0.51892322  0.13876168  0.67267666  1.0
  O2-  O94  1  0.51932448  0.13803914  0.34224245  1.0
  O2-  O95  1  0.51825000  0.13980000  0.00740000  1.0
  O2-  O96  1  0.40055000  0.40740000  0.47533333  1.0
  O2-  O97  1  0.40055000  0.40740000  0.14200000  1.0
  O2-  O98  1  0.40397277  0.39964044  0.80943708  1.0
  O2-  O99  1  0.90055000  0.40740000  0.47533333  1.0
  O2-  O100  1  0.90055000  0.40740000  0.14200000  1.0
  O2-  O101  1  0.90255439  0.40934530  0.80528703  1.0
  O2-  O102  1  0.40055000  0.09260000  0.52466667  1.0
  O2-  O103  1  0.40055000  0.09260000  0.19133333  1.0
  O2-  O104  1  0.40055000  0.09260000  0.85800000  1.0
  O2-  O105  1  0.90055000  0.09260000  0.52466667  1.0
  O2-  O106  1  0.89743567  0.09633097  0.19003476  1.0
  O2-  O107  1  0.90055000  0.09260000  0.85800000  1.0
  O2-  O108  1  0.09945000  0.59260000  0.69133333  1.0
  O2-  O109  1  0.09945000  0.59260000  0.35800000  1.0
  O2-  O110  1  0.09868522  0.59488048  0.02057395  1.0
  O2-  O111  1  0.59945000  0.59260000  0.69133333  1.0
  O2-  O112  1  0.59945000  0.59260000  0.35800000  1.0
  O2-  O113  1  0.59945000  0.59260000  0.02466667  1.0
  O2-  O114  1  0.09945000  0.90740000  0.64200000  1.0
  O2-  O115  1  0.09775251  0.90523803  0.30753633  1.0
  O2-  O116  1  0.10036078  0.90701616  0.97462426  1.0
  O2-  O117  1  0.59945000  0.90740000  0.64200000  1.0
  O2-  O118  1  0.59945000  0.90740000  0.30866667  1.0
  O2-  O119  1  0.59938949  0.90446596  0.97472363  1.0
  O2-  O120  1  0.99969234  0.49985810  0.58266128  1.0
  O2-  O121  1  0.99716758  0.49851619  0.25331684  1.0
  O2-  O122  1  0.00299448  0.50406527  0.92032558  1.0
  O2-  O123  1  0.50000000  0.50000000  0.58333333  1.0
  O2-  O124  1  0.50000000  0.50000000  0.25000000  1.0
  O2-  O125  1  0.49780147  0.49887676  0.91696055  1.0
  O2-  O126  1  0.00000000  0.00000000  0.75000000  1.0
  O2-  O127  1  0.00000000  0.00000000  0.41666667  1.0
  O2-  O128  1  0.00000000  0.00000000  0.08333333  1.0
  O2-  O129  1  0.50000000  0.00000000  0.75000000  1.0
  O2-  O130  1  0.50000000  0.00000000  0.41666667  1.0
  O2-  O131  1  0.50000000  0.00000000  0.08333333  1.0
  O2-  O132  1  0.14999412  0.46104725  0.48743091  1.0
  O2-  O133  1  0.15100000  0.46050000  0.15480000  1.0
  O2-  O134  1  0.15100000  0.46050000  0.82146667  1.0
  O2-  O135  1  0.65100000  0.46050000  0.48813333  1.0
  O2-  O136  1  0.65138513  0.45936074  0.15865778  1.0
  O2-  O137  1  0.65100000  0.46050000  0.82146667  1.0
  O2-  O138  1  0.14914461  0.03960375  0.51022300  1.0
  O2-  O139  1  0.15100000  0.03950000  0.17853333  1.0
  O2-  O140  1  0.15100000  0.03950000  0.84520000  1.0
  O2-  O141  1  0.65100000  0.03950000  0.51186667  1.0
  O2-  O142  1  0.65100000  0.03950000  0.17853333  1.0
  O2-  O143  1  0.65100000  0.03950000  0.84520000  1.0
  O2-  O144  1  0.35165196  0.54138480  0.67628393  1.0
  O2-  O145  1  0.34902911  0.53417640  0.34624903  1.0
  O2-  O146  1  0.34900000  0.53950000  0.01186667  1.0
  O2-  O147  1  0.84900000  0.53950000  0.67853333  1.0
  O2-  O148  1  0.84900000  0.53950000  0.34520000  1.0
  O2-  O149  1  0.84840024  0.54209570  0.01152046  1.0
  O2-  O150  1  0.34900000  0.96050000  0.65480000  1.0
  O2-  O151  1  0.34900000  0.96050000  0.32146667  1.0
  O2-  O152  1  0.34903738  0.96204037  0.98824818  1.0
  O2-  O153  1  0.84900000  0.96050000  0.65480000  1.0
  O2-  O154  1  0.84900000  0.96050000  0.32146667  1.0
  O2-  O155  1  0.84900000  0.96050000  0.98813333  1.0
  O2-  O156  1  0.23205000  0.25000000  0.50000000  1.0
  O2-  O157  1  0.23205000  0.25000000  0.16666667  1.0
  O2-  O158  1  0.23205000  0.25000000  0.83333333  1.0
  O2-  O159  1  0.73205000  0.25000000  0.50000000  1.0
  O2-  O160  1  0.73205000  0.25000000  0.16666667  1.0
  O2-  O161  1  0.73061772  0.24806308  0.82932703  1.0
  O2-  O162  1  0.26795000  0.75000000  0.66666667  1.0
  O2-  O163  1  0.26874755  0.74655620  0.33070987  1.0
  O2-  O164  1  0.26795000  0.75000000  0.00000000  1.0
  O2-  O165  1  0.76795000  0.75000000  0.66666667  1.0
  O2-  O166  1  0.76795000  0.75000000  0.33333333  1.0
  O2-  O167  1  0.76795000  0.75000000  0.00000000  1.0
  O2-  O168  1  0.23820000  0.29150000  0.72600000  1.0
  O2-  O169  1  0.23820000  0.29150000  0.39266667  1.0
  O2-  O170  1  0.23820000  0.29150000  0.05933333  1.0
  O2-  O171  1  0.73820000  0.29150000  0.72600000  1.0
  O2-  O172  1  0.73813554  0.28612807  0.39281540  1.0
  O2-  O173  1  0.73820000  0.29150000  0.05933333  1.0
  O2-  O174  1  0.23820000  0.20850000  0.60733333  1.0
  O2-  O175  1  0.23820000  0.20850000  0.27400000  1.0
  O2-  O176  1  0.23850413  0.21009254  0.94286596  1.0
  O2-  O177  1  0.73820000  0.20850000  0.60733333  1.0
  O2-  O178  1  0.73820000  0.20850000  0.27400000  1.0
  O2-  O179  1  0.73513548  0.21270127  0.94062333  1.0
  O2-  O180  1  0.26180000  0.70850000  0.44066667  1.0
  O2-  O181  1  0.26180000  0.70850000  0.10733333  1.0
  O2-  O182  1  0.26646621  0.70499591  0.77403777  1.0
  O2-  O183  1  0.76358399  0.70918292  0.44221747  1.0
  O2-  O184  1  0.76180000  0.70850000  0.10733333  1.0
  O2-  O185  1  0.76180000  0.70850000  0.77400000  1.0
  O2-  O186  1  0.26180000  0.79150000  0.55933333  1.0
  O2-  O187  1  0.26180000  0.79150000  0.22600000  1.0
  O2-  O188  1  0.26364646  0.78814078  0.89224972  1.0
  O2-  O189  1  0.76180000  0.79150000  0.55933333  1.0
  O2-  O190  1  0.76296380  0.79381570  0.23254020  1.0
  O2-  O191  1  0.76180000  0.79150000  0.89266667  1.0
