# generated using pymatgen
data_LiAl(Si2O5)2
_symmetry_space_group_name_H-M   'P 1'
_cell_length_a   22.86498982
_cell_length_b   10.27053008
_cell_length_c   11.22007851
_cell_angle_alpha   90.00000000
_cell_angle_beta   74.35698760
_cell_angle_gamma   90.00000000
_symmetry_Int_Tables_number   1
_chemical_formula_structural   LiAl(Si2O5)2
_chemical_formula_sum   'Li12 Al12 Si48 O120'
_cell_volume   2537.27886440
_cell_formula_units_Z   12
loop_
 _symmetry_equiv_pos_site_id
 _symmetry_equiv_pos_as_xyz
  1  'x, y, z'
loop_
 _atom_type_symbol
 _atom_type_oxidation_number
  Li+  1.0
  Al3+  3.0
  Si4+  4.0
  O2-  -2.0
loop_
 _atom_site_type_symbol
 _atom_site_label
 _atom_site_symmetry_multiplicity
 _atom_site_fract_x
 _atom_site_fract_y
 _atom_site_fract_z
 _atom_site_occupancy
  Li+  Li0  1  0.91666667  0.28766667  0.75000000  1.0
  Li+  Li1  1  0.58333333  0.28766667  0.75000000  1.0
  Li+  Li2  1  0.25000000  0.28766667  0.75000000  1.0
  Li+  Li3  1  0.91666667  0.78766667  0.75000000  1.0
  Li+  Li4  1  0.58333333  0.78766667  0.75000000  1.0
  Li+  Li5  1  0.25000000  0.78766667  0.75000000  1.0
  Li+  Li6  1  0.75000000  0.54566667  0.25000000  1.0
  Li+  Li7  1  0.41666667  0.54566667  0.25000000  1.0
  Li+  Li8  1  0.08333333  0.54566667  0.25000000  1.0
  Li+  Li9  1  0.75000000  0.04566667  0.25000000  1.0
  Li+  Li10  1  0.41666667  0.04566667  0.25000000  1.0
  Li+  Li11  1  0.08333333  0.04566667  0.25000000  1.0
  Al3+  Al12  1  0.91666667  0.53866667  0.75000000  1.0
  Al3+  Al13  1  0.58333333  0.53866667  0.75000000  1.0
  Al3+  Al14  1  0.25000000  0.53866667  0.75000000  1.0
  Al3+  Al15  1  0.91666667  0.03866667  0.75000000  1.0
  Al3+  Al16  1  0.58333333  0.03866667  0.75000000  1.0
  Al3+  Al17  1  0.25000000  0.03866667  0.75000000  1.0
  Al3+  Al18  1  0.75000000  0.29466667  0.25000000  1.0
  Al3+  Al19  1  0.41666667  0.29466667  0.25000000  1.0
  Al3+  Al20  1  0.08333333  0.29466667  0.25000000  1.0
  Al3+  Al21  1  0.75000000  0.79466667  0.25000000  1.0
  Al3+  Al22  1  0.41666667  0.79466667  0.25000000  1.0
  Al3+  Al23  1  0.08333333  0.79466667  0.25000000  1.0
  Si4+  Si24  1  0.76373333  0.66041667  0.49750000  1.0
  Si4+  Si25  1  0.43040000  0.66041667  0.49750000  1.0
  Si4+  Si26  1  0.09706667  0.66041667  0.49750000  1.0
  Si4+  Si27  1  0.76373333  0.16041667  0.49750000  1.0
  Si4+  Si28  1  0.43040000  0.16041667  0.49750000  1.0
  Si4+  Si29  1  0.09706667  0.16041667  0.49750000  1.0
  Si4+  Si30  1  0.73626667  0.66041667  0.00250000  1.0
  Si4+  Si31  1  0.40293333  0.66041667  0.00250000  1.0
  Si4+  Si32  1  0.06960000  0.66041667  0.00250000  1.0
  Si4+  Si33  1  0.73626667  0.16041667  0.00250000  1.0
  Si4+  Si34  1  0.40293333  0.16041667  0.00250000  1.0
  Si4+  Si35  1  0.06960000  0.16041667  0.00250000  1.0
  Si4+  Si36  1  0.90293333  0.17291667  0.50250000  1.0
  Si4+  Si37  1  0.56960000  0.17291667  0.50250000  1.0
  Si4+  Si38  1  0.23626667  0.17291667  0.50250000  1.0
  Si4+  Si39  1  0.90293333  0.67291667  0.50250000  1.0
  Si4+  Si40  1  0.56960000  0.67291667  0.50250000  1.0
  Si4+  Si41  1  0.23626667  0.67291667  0.50250000  1.0
  Si4+  Si42  1  0.93040000  0.17291667  0.99750000  1.0
  Si4+  Si43  1  0.59706667  0.17291667  0.99750000  1.0
  Si4+  Si44  1  0.26373333  0.17291667  0.99750000  1.0
  Si4+  Si45  1  0.93040000  0.67291667  0.99750000  1.0
  Si4+  Si46  1  0.59706667  0.67291667  0.99750000  1.0
  Si4+  Si47  1  0.26373333  0.67291667  0.99750000  1.0
  Si4+  Si48  1  0.71406667  0.41181667  0.64780000  1.0
  Si4+  Si49  1  0.38073333  0.41181667  0.64780000  1.0
  Si4+  Si50  1  0.04740000  0.41181667  0.64780000  1.0
  Si4+  Si51  1  0.71406667  0.91181667  0.64780000  1.0
  Si4+  Si52  1  0.38073333  0.91181667  0.64780000  1.0
  Si4+  Si53  1  0.04740000  0.91181667  0.64780000  1.0
  Si4+  Si54  1  0.78593333  0.41181667  0.85220000  1.0
  Si4+  Si55  1  0.45260000  0.41181667  0.85220000  1.0
  Si4+  Si56  1  0.11926667  0.41181667  0.85220000  1.0
  Si4+  Si57  1  0.78593333  0.91181667  0.85220000  1.0
  Si4+  Si58  1  0.45260000  0.91181667  0.85220000  1.0
  Si4+  Si59  1  0.11926667  0.91181667  0.85220000  1.0
  Si4+  Si60  1  0.95260000  0.42151667  0.35220000  1.0
  Si4+  Si61  1  0.61926667  0.42151667  0.35220000  1.0
  Si4+  Si62  1  0.28593333  0.42151667  0.35220000  1.0
  Si4+  Si63  1  0.95260000  0.92151667  0.35220000  1.0
  Si4+  Si64  1  0.61926667  0.92151667  0.35220000  1.0
  Si4+  Si65  1  0.28593333  0.92151667  0.35220000  1.0
  Si4+  Si66  1  0.88073333  0.42151667  0.14780000  1.0
  Si4+  Si67  1  0.54740000  0.42151667  0.14780000  1.0
  Si4+  Si68  1  0.21406667  0.42151667  0.14780000  1.0
  Si4+  Si69  1  0.88073333  0.92151667  0.14780000  1.0
  Si4+  Si70  1  0.54740000  0.92151667  0.14780000  1.0
  Si4+  Si71  1  0.21406667  0.92151667  0.14780000  1.0
  O2-  O72  1  0.75740000  0.18491667  0.36020000  1.0
  O2-  O73  1  0.42406667  0.18491667  0.36020000  1.0
  O2-  O74  1  0.09073333  0.18491667  0.36020000  1.0
  O2-  O75  1  0.75740000  0.68491667  0.36020000  1.0
  O2-  O76  1  0.42406667  0.68491667  0.36020000  1.0
  O2-  O77  1  0.09073333  0.68491667  0.36020000  1.0
  O2-  O78  1  0.74260000  0.18491667  0.13980000  1.0
  O2-  O79  1  0.40926667  0.18491667  0.13980000  1.0
  O2-  O80  1  0.07593333  0.18491667  0.13980000  1.0
  O2-  O81  1  0.74260000  0.68491667  0.13980000  1.0
  O2-  O82  1  0.40926667  0.68491667  0.13980000  1.0
  O2-  O83  1  0.07593333  0.68491667  0.13980000  1.0
  O2-  O84  1  0.90926667  0.64841667  0.63980000  1.0
  O2-  O85  1  0.57593333  0.64841667  0.63980000  1.0
  O2-  O86  1  0.24260000  0.64841667  0.63980000  1.0
  O2-  O87  1  0.90926667  0.14841667  0.63980000  1.0
  O2-  O88  1  0.57593333  0.14841667  0.63980000  1.0
  O2-  O89  1  0.24260000  0.14841667  0.63980000  1.0
  O2-  O90  1  0.92406667  0.64841667  0.86020000  1.0
  O2-  O91  1  0.59073333  0.64841667  0.86020000  1.0
  O2-  O92  1  0.25740000  0.64841667  0.86020000  1.0
  O2-  O93  1  0.92406667  0.14841667  0.86020000  1.0
  O2-  O94  1  0.59073333  0.14841667  0.86020000  1.0
  O2-  O95  1  0.25740000  0.14841667  0.86020000  1.0
  O2-  O96  1  0.72533333  0.26611667  0.59260000  1.0
  O2-  O97  1  0.39200000  0.26611667  0.59260000  1.0
  O2-  O98  1  0.05866667  0.26611667  0.59260000  1.0
  O2-  O99  1  0.72533333  0.76611667  0.59260000  1.0
  O2-  O100  1  0.39200000  0.76611667  0.59260000  1.0
  O2-  O101  1  0.05866667  0.76611667  0.59260000  1.0
  O2-  O102  1  0.77466667  0.26611667  0.90740000  1.0
  O2-  O103  1  0.44133333  0.26611667  0.90740000  1.0
  O2-  O104  1  0.10800000  0.26611667  0.90740000  1.0
  O2-  O105  1  0.77466667  0.76611667  0.90740000  1.0
  O2-  O106  1  0.44133333  0.76611667  0.90740000  1.0
  O2-  O107  1  0.10800000  0.76611667  0.90740000  1.0
  O2-  O108  1  0.94133333  0.56721667  0.40740000  1.0
  O2-  O109  1  0.60800000  0.56721667  0.40740000  1.0
  O2-  O110  1  0.27466667  0.56721667  0.40740000  1.0
  O2-  O111  1  0.94133333  0.06721667  0.40740000  1.0
  O2-  O112  1  0.60800000  0.06721667  0.40740000  1.0
  O2-  O113  1  0.27466667  0.06721667  0.40740000  1.0
  O2-  O114  1  0.89200000  0.56721667  0.09260000  1.0
  O2-  O115  1  0.55866667  0.56721667  0.09260000  1.0
  O2-  O116  1  0.22533333  0.56721667  0.09260000  1.0
  O2-  O117  1  0.89200000  0.06721667  0.09260000  1.0
  O2-  O118  1  0.55866667  0.06721667  0.09260000  1.0
  O2-  O119  1  0.22533333  0.06721667  0.09260000  1.0
  O2-  O120  1  0.83333333  0.66666667  0.50000000  1.0
  O2-  O121  1  0.50000000  0.66666667  0.50000000  1.0
  O2-  O122  1  0.16666667  0.66666667  0.50000000  1.0
  O2-  O123  1  0.83333333  0.16666667  0.50000000  1.0
  O2-  O124  1  0.50000000  0.16666667  0.50000000  1.0
  O2-  O125  1  0.16666667  0.16666667  0.50000000  1.0
  O2-  O126  1  0.00000000  0.66666667  0.00000000  1.0
  O2-  O127  1  0.66666667  0.66666667  0.00000000  1.0
  O2-  O128  1  0.33333333  0.66666667  0.00000000  1.0
  O2-  O129  1  0.00000000  0.16666667  0.00000000  1.0
  O2-  O130  1  0.66666667  0.16666667  0.00000000  1.0
  O2-  O131  1  0.33333333  0.16666667  0.00000000  1.0
  O2-  O132  1  0.73813333  0.51566667  0.53950000  1.0
  O2-  O133  1  0.40480000  0.51566667  0.53950000  1.0
  O2-  O134  1  0.07146667  0.51566667  0.53950000  1.0
  O2-  O135  1  0.73813333  0.01566667  0.53950000  1.0
  O2-  O136  1  0.40480000  0.01566667  0.53950000  1.0
  O2-  O137  1  0.07146667  0.01566667  0.53950000  1.0
  O2-  O138  1  0.76186667  0.51566667  0.96050000  1.0
  O2-  O139  1  0.42853333  0.51566667  0.96050000  1.0
  O2-  O140  1  0.09520000  0.51566667  0.96050000  1.0
  O2-  O141  1  0.76186667  0.01566667  0.96050000  1.0
  O2-  O142  1  0.42853333  0.01566667  0.96050000  1.0
  O2-  O143  1  0.09520000  0.01566667  0.96050000  1.0
  O2-  O144  1  0.92853333  0.31766667  0.46050000  1.0
  O2-  O145  1  0.59520000  0.31766667  0.46050000  1.0
  O2-  O146  1  0.26186667  0.31766667  0.46050000  1.0
  O2-  O147  1  0.92853333  0.81766667  0.46050000  1.0
  O2-  O148  1  0.59520000  0.81766667  0.46050000  1.0
  O2-  O149  1  0.26186667  0.81766667  0.46050000  1.0
  O2-  O150  1  0.90480000  0.31766667  0.03950000  1.0
  O2-  O151  1  0.57146667  0.31766667  0.03950000  1.0
  O2-  O152  1  0.23813333  0.31766667  0.03950000  1.0
  O2-  O153  1  0.90480000  0.81766667  0.03950000  1.0
  O2-  O154  1  0.57146667  0.81766667  0.03950000  1.0
  O2-  O155  1  0.23813333  0.81766667  0.03950000  1.0
  O2-  O156  1  0.75000000  0.43461667  0.75000000  1.0
  O2-  O157  1  0.41666667  0.43461667  0.75000000  1.0
  O2-  O158  1  0.08333333  0.43461667  0.75000000  1.0
  O2-  O159  1  0.75000000  0.93461667  0.75000000  1.0
  O2-  O160  1  0.41666667  0.93461667  0.75000000  1.0
  O2-  O161  1  0.08333333  0.93461667  0.75000000  1.0
  O2-  O162  1  0.91666667  0.39871667  0.25000000  1.0
  O2-  O163  1  0.58333333  0.39871667  0.25000000  1.0
  O2-  O164  1  0.25000000  0.39871667  0.25000000  1.0
  O2-  O165  1  0.91666667  0.89871667  0.25000000  1.0
  O2-  O166  1  0.58333333  0.89871667  0.25000000  1.0
  O2-  O167  1  0.25000000  0.89871667  0.25000000  1.0
  O2-  O168  1  0.97600000  0.42846667  0.70850000  1.0
  O2-  O169  1  0.64266667  0.42846667  0.70850000  1.0
  O2-  O170  1  0.30933333  0.42846667  0.70850000  1.0
  O2-  O171  1  0.97600000  0.92846667  0.70850000  1.0
  O2-  O172  1  0.64266667  0.92846667  0.70850000  1.0
  O2-  O173  1  0.30933333  0.92846667  0.70850000  1.0
  O2-  O174  1  0.85733333  0.42846667  0.79150000  1.0
  O2-  O175  1  0.52400000  0.42846667  0.79150000  1.0
  O2-  O176  1  0.19066667  0.42846667  0.79150000  1.0
  O2-  O177  1  0.85733333  0.92846667  0.79150000  1.0
  O2-  O178  1  0.52400000  0.92846667  0.79150000  1.0
  O2-  O179  1  0.19066667  0.92846667  0.79150000  1.0
  O2-  O180  1  0.69066667  0.40486667  0.29150000  1.0
  O2-  O181  1  0.35733333  0.40486667  0.29150000  1.0
  O2-  O182  1  0.02400000  0.40486667  0.29150000  1.0
  O2-  O183  1  0.69066667  0.90486667  0.29150000  1.0
  O2-  O184  1  0.35733333  0.90486667  0.29150000  1.0
  O2-  O185  1  0.02400000  0.90486667  0.29150000  1.0
  O2-  O186  1  0.80933333  0.40486667  0.20850000  1.0
  O2-  O187  1  0.47600000  0.40486667  0.20850000  1.0
  O2-  O188  1  0.14266667  0.40486667  0.20850000  1.0
  O2-  O189  1  0.80933333  0.90486667  0.20850000  1.0
  O2-  O190  1  0.47600000  0.90486667  0.20850000  1.0
  O2-  O191  1  0.14266667  0.90486667  0.20850000  1.0
