# generated using pymatgen
data_LiAl(Si2O5)2
_symmetry_space_group_name_H-M   'P 1'
_cell_length_a   10.27920000
_cell_length_b   22.88429142
_cell_length_c   11.22955000
_cell_angle_alpha   105.64301240
_cell_angle_beta   90.00000000
_cell_angle_gamma   90.00000000
_symmetry_Int_Tables_number   1
_chemical_formula_structural   LiAl(Si2O5)2
_chemical_formula_sum   'Li12 Al12 Si48 O120'
_cell_volume   2543.70986174
_cell_formula_units_Z   12
loop_
 _symmetry_equiv_pos_site_id
 _symmetry_equiv_pos_as_xyz
  1  'x, y, z'
loop_
 _atom_type_symbol
 _atom_type_oxidation_number
  Li+  1.0
  Al3+  3.0
  Si4+  4.0
  O2-  -2.0
loop_
 _atom_site_type_symbol
 _atom_site_label
 _atom_site_symmetry_multiplicity
 _atom_site_fract_x
 _atom_site_fract_y
 _atom_site_fract_z
 _atom_site_occupancy
  Li+  Li1  1  0.37900000  0.08333333  0.75000000  1.0
  Li+  Li1  1  0.37900000  0.41666667  0.75000000  1.0
  Li+  Li1  1  0.37900000  0.75000000  0.75000000  1.0
  Li+  Li1  1  0.87900000  0.08333333  0.75000000  1.0
  Li+  Li1  1  0.87900000  0.41666667  0.75000000  1.0
  Li+  Li1  1  0.87900000  0.75000000  0.75000000  1.0
  Li+  Li1  1  0.12100000  0.25000000  0.25000000  1.0
  Li+  Li1  1  0.12100000  0.58333333  0.25000000  1.0
  Li+  Li1  1  0.12100000  0.91666667  0.25000000  1.0
  Li+  Li1  1  0.62100000  0.25000000  0.25000000  1.0
  Li+  Li1  1  0.62100000  0.58333333  0.25000000  1.0
  Li+  Li1  1  0.62100000  0.91666667  0.25000000  1.0
  Al3+  Al1  1  0.12800000  0.08333333  0.75000000  1.0
  Al3+  Al1  1  0.12800000  0.41666667  0.75000000  1.0
  Al3+  Al1  1  0.12800000  0.75000000  0.75000000  1.0
  Al3+  Al1  1  0.62800000  0.08333333  0.75000000  1.0
  Al3+  Al1  1  0.62800000  0.41666667  0.75000000  1.0
  Al3+  Al1  1  0.62800000  0.75000000  0.75000000  1.0
  Al3+  Al1  1  0.37200000  0.25000000  0.25000000  1.0
  Al3+  Al1  1  0.37200000  0.58333333  0.25000000  1.0
  Al3+  Al1  1  0.37200000  0.91666667  0.25000000  1.0
  Al3+  Al1  1  0.87200000  0.25000000  0.25000000  1.0
  Al3+  Al1  1  0.87200000  0.58333333  0.25000000  1.0
  Al3+  Al1  1  0.87200000  0.91666667  0.25000000  1.0
  Si4+  Si1  1  0.00625000  0.23626667  0.49750000  1.0
  Si4+  Si1  1  0.00625000  0.56960000  0.49750000  1.0
  Si4+  Si1  1  0.00625000  0.90293333  0.49750000  1.0
  Si4+  Si1  1  0.50625000  0.23626667  0.49750000  1.0
  Si4+  Si1  1  0.50625000  0.56960000  0.49750000  1.0
  Si4+  Si1  1  0.50625000  0.90293333  0.49750000  1.0
  Si4+  Si1  1  0.00625000  0.26373333  0.00250000  1.0
  Si4+  Si1  1  0.00625000  0.59706667  0.00250000  1.0
  Si4+  Si1  1  0.00625000  0.93040000  0.00250000  1.0
  Si4+  Si1  1  0.50625000  0.26373333  0.00250000  1.0
  Si4+  Si1  1  0.50625000  0.59706667  0.00250000  1.0
  Si4+  Si1  1  0.50625000  0.93040000  0.00250000  1.0
  Si4+  Si1  1  0.49375000  0.09706667  0.50250000  1.0
  Si4+  Si1  1  0.49375000  0.43040000  0.50250000  1.0
  Si4+  Si1  1  0.49375000  0.76373333  0.50250000  1.0
  Si4+  Si1  1  0.99375000  0.09706667  0.50250000  1.0
  Si4+  Si1  1  0.99375000  0.43040000  0.50250000  1.0
  Si4+  Si1  1  0.99375000  0.76373333  0.50250000  1.0
  Si4+  Si1  1  0.49375000  0.06960000  0.99750000  1.0
  Si4+  Si1  1  0.49375000  0.40293333  0.99750000  1.0
  Si4+  Si1  1  0.49375000  0.73626667  0.99750000  1.0
  Si4+  Si1  1  0.99375000  0.06960000  0.99750000  1.0
  Si4+  Si1  1  0.99375000  0.40293333  0.99750000  1.0
  Si4+  Si1  1  0.99375000  0.73626667  0.99750000  1.0
  Si4+  Si2  1  0.25485000  0.28593333  0.64780000  1.0
  Si4+  Si2  1  0.25485000  0.61926667  0.64780000  1.0
  Si4+  Si2  1  0.25485000  0.95260000  0.64780000  1.0
  Si4+  Si2  1  0.75485000  0.28593333  0.64780000  1.0
  Si4+  Si2  1  0.75485000  0.61926667  0.64780000  1.0
  Si4+  Si2  1  0.75485000  0.95260000  0.64780000  1.0
  Si4+  Si2  1  0.25485000  0.21406667  0.85220000  1.0
  Si4+  Si2  1  0.25485000  0.54740000  0.85220000  1.0
  Si4+  Si2  1  0.25485000  0.88073333  0.85220000  1.0
  Si4+  Si2  1  0.75485000  0.21406667  0.85220000  1.0
  Si4+  Si2  1  0.75485000  0.54740000  0.85220000  1.0
  Si4+  Si2  1  0.75485000  0.88073333  0.85220000  1.0
  Si4+  Si2  1  0.24515000  0.04740000  0.35220000  1.0
  Si4+  Si2  1  0.24515000  0.38073333  0.35220000  1.0
  Si4+  Si2  1  0.24515000  0.71406667  0.35220000  1.0
  Si4+  Si2  1  0.74515000  0.04740000  0.35220000  1.0
  Si4+  Si2  1  0.74515000  0.38073333  0.35220000  1.0
  Si4+  Si2  1  0.74515000  0.71406667  0.35220000  1.0
  Si4+  Si2  1  0.24515000  0.11926667  0.14780000  1.0
  Si4+  Si2  1  0.24515000  0.45260000  0.14780000  1.0
  Si4+  Si2  1  0.24515000  0.78593333  0.14780000  1.0
  Si4+  Si2  1  0.74515000  0.11926667  0.14780000  1.0
  Si4+  Si2  1  0.74515000  0.45260000  0.14780000  1.0
  Si4+  Si2  1  0.74515000  0.78593333  0.14780000  1.0
  O2-  O1  1  0.48175000  0.24260000  0.36020000  1.0
  O2-  O1  1  0.48175000  0.57593333  0.36020000  1.0
  O2-  O1  1  0.48175000  0.90926667  0.36020000  1.0
  O2-  O1  1  0.98175000  0.24260000  0.36020000  1.0
  O2-  O1  1  0.98175000  0.57593333  0.36020000  1.0
  O2-  O1  1  0.98175000  0.90926667  0.36020000  1.0
  O2-  O1  1  0.48175000  0.25740000  0.13980000  1.0
  O2-  O1  1  0.48175000  0.59073333  0.13980000  1.0
  O2-  O1  1  0.48175000  0.92406667  0.13980000  1.0
  O2-  O1  1  0.98175000  0.25740000  0.13980000  1.0
  O2-  O1  1  0.98175000  0.59073333  0.13980000  1.0
  O2-  O1  1  0.98175000  0.92406667  0.13980000  1.0
  O2-  O1  1  0.01825000  0.09073333  0.63980000  1.0
  O2-  O1  1  0.01825000  0.42406667  0.63980000  1.0
  O2-  O1  1  0.01825000  0.75740000  0.63980000  1.0
  O2-  O1  1  0.51825000  0.09073333  0.63980000  1.0
  O2-  O1  1  0.51825000  0.42406667  0.63980000  1.0
  O2-  O1  1  0.51825000  0.75740000  0.63980000  1.0
  O2-  O1  1  0.01825000  0.07593333  0.86020000  1.0
  O2-  O1  1  0.01825000  0.40926667  0.86020000  1.0
  O2-  O1  1  0.01825000  0.74260000  0.86020000  1.0
  O2-  O1  1  0.51825000  0.07593333  0.86020000  1.0
  O2-  O1  1  0.51825000  0.40926667  0.86020000  1.0
  O2-  O1  1  0.51825000  0.74260000  0.86020000  1.0
  O2-  O2  1  0.40055000  0.27466667  0.59260000  1.0
  O2-  O2  1  0.40055000  0.60800000  0.59260000  1.0
  O2-  O2  1  0.40055000  0.94133333  0.59260000  1.0
  O2-  O2  1  0.90055000  0.27466667  0.59260000  1.0
  O2-  O2  1  0.90055000  0.60800000  0.59260000  1.0
  O2-  O2  1  0.90055000  0.94133333  0.59260000  1.0
  O2-  O2  1  0.40055000  0.22533333  0.90740000  1.0
  O2-  O2  1  0.40055000  0.55866667  0.90740000  1.0
  O2-  O2  1  0.40055000  0.89200000  0.90740000  1.0
  O2-  O2  1  0.90055000  0.22533333  0.90740000  1.0
  O2-  O2  1  0.90055000  0.55866667  0.90740000  1.0
  O2-  O2  1  0.90055000  0.89200000  0.90740000  1.0
  O2-  O2  1  0.09945000  0.05866667  0.40740000  1.0
  O2-  O2  1  0.09945000  0.39200000  0.40740000  1.0
  O2-  O2  1  0.09945000  0.72533333  0.40740000  1.0
  O2-  O2  1  0.59945000  0.05866667  0.40740000  1.0
  O2-  O2  1  0.59945000  0.39200000  0.40740000  1.0
  O2-  O2  1  0.59945000  0.72533333  0.40740000  1.0
  O2-  O2  1  0.09945000  0.10800000  0.09260000  1.0
  O2-  O2  1  0.09945000  0.44133333  0.09260000  1.0
  O2-  O2  1  0.09945000  0.77466667  0.09260000  1.0
  O2-  O2  1  0.59945000  0.10800000  0.09260000  1.0
  O2-  O2  1  0.59945000  0.44133333  0.09260000  1.0
  O2-  O2  1  0.59945000  0.77466667  0.09260000  1.0
  O2-  O3  1  0.00000000  0.16666667  0.50000000  1.0
  O2-  O3  1  0.00000000  0.50000000  0.50000000  1.0
  O2-  O3  1  0.00000000  0.83333333  0.50000000  1.0
  O2-  O3  1  0.50000000  0.16666667  0.50000000  1.0
  O2-  O3  1  0.50000000  0.50000000  0.50000000  1.0
  O2-  O3  1  0.50000000  0.83333333  0.50000000  1.0
  O2-  O3  1  0.00000000  0.00000000  0.00000000  1.0
  O2-  O3  1  0.00000000  0.33333333  0.00000000  1.0
  O2-  O3  1  0.00000000  0.66666667  1.00000000  1.0
  O2-  O3  1  0.50000000  0.00000000  0.00000000  1.0
  O2-  O3  1  0.50000000  0.33333333  0.00000000  1.0
  O2-  O3  1  0.50000000  0.66666667  1.00000000  1.0
  O2-  O4  1  0.15100000  0.26186667  0.53950000  1.0
  O2-  O4  1  0.15100000  0.59520000  0.53950000  1.0
  O2-  O4  1  0.15100000  0.92853333  0.53950000  1.0
  O2-  O4  1  0.65100000  0.26186667  0.53950000  1.0
  O2-  O4  1  0.65100000  0.59520000  0.53950000  1.0
  O2-  O4  1  0.65100000  0.92853333  0.53950000  1.0
  O2-  O4  1  0.15100000  0.23813333  0.96050000  1.0
  O2-  O4  1  0.15100000  0.57146667  0.96050000  1.0
  O2-  O4  1  0.15100000  0.90480000  0.96050000  1.0
  O2-  O4  1  0.65100000  0.23813333  0.96050000  1.0
  O2-  O4  1  0.65100000  0.57146667  0.96050000  1.0
  O2-  O4  1  0.65100000  0.90480000  0.96050000  1.0
  O2-  O4  1  0.34900000  0.07146667  0.46050000  1.0
  O2-  O4  1  0.34900000  0.40480000  0.46050000  1.0
  O2-  O4  1  0.34900000  0.73813333  0.46050000  1.0
  O2-  O4  1  0.84900000  0.07146667  0.46050000  1.0
  O2-  O4  1  0.84900000  0.40480000  0.46050000  1.0
  O2-  O4  1  0.84900000  0.73813333  0.46050000  1.0
  O2-  O4  1  0.34900000  0.09520000  0.03950000  1.0
  O2-  O4  1  0.34900000  0.42853333  0.03950000  1.0
  O2-  O4  1  0.34900000  0.76186667  0.03950000  1.0
  O2-  O4  1  0.84900000  0.09520000  0.03950000  1.0
  O2-  O4  1  0.84900000  0.42853333  0.03950000  1.0
  O2-  O4  1  0.84900000  0.76186667  0.03950000  1.0
  O2-  O5  1  0.23205000  0.25000000  0.75000000  1.0
  O2-  O5  1  0.23205000  0.58333333  0.75000000  1.0
  O2-  O5  1  0.23205000  0.91666667  0.75000000  1.0
  O2-  O5  1  0.73205000  0.25000000  0.75000000  1.0
  O2-  O5  1  0.73205000  0.58333333  0.75000000  1.0
  O2-  O5  1  0.73205000  0.91666667  0.75000000  1.0
  O2-  O5  1  0.26795000  0.08333333  0.25000000  1.0
  O2-  O5  1  0.26795000  0.41666667  0.25000000  1.0
  O2-  O5  1  0.26795000  0.75000000  0.25000000  1.0
  O2-  O5  1  0.76795000  0.08333333  0.25000000  1.0
  O2-  O5  1  0.76795000  0.41666667  0.25000000  1.0
  O2-  O5  1  0.76795000  0.75000000  0.25000000  1.0
  O2-  O6  1  0.23820000  0.02400000  0.70850000  1.0
  O2-  O6  1  0.23820000  0.35733333  0.70850000  1.0
  O2-  O6  1  0.23820000  0.69066667  0.70850000  1.0
  O2-  O6  1  0.73820000  0.02400000  0.70850000  1.0
  O2-  O6  1  0.73820000  0.35733333  0.70850000  1.0
  O2-  O6  1  0.73820000  0.69066667  0.70850000  1.0
  O2-  O6  1  0.23820000  0.14266667  0.79150000  1.0
  O2-  O6  1  0.23820000  0.47600000  0.79150000  1.0
  O2-  O6  1  0.23820000  0.80933333  0.79150000  1.0
  O2-  O6  1  0.73820000  0.14266667  0.79150000  1.0
  O2-  O6  1  0.73820000  0.47600000  0.79150000  1.0
  O2-  O6  1  0.73820000  0.80933333  0.79150000  1.0
  O2-  O6  1  0.26180000  0.30933333  0.29150000  1.0
  O2-  O6  1  0.26180000  0.64266667  0.29150000  1.0
  O2-  O6  1  0.26180000  0.97600000  0.29150000  1.0
  O2-  O6  1  0.76180000  0.30933333  0.29150000  1.0
  O2-  O6  1  0.76180000  0.64266667  0.29150000  1.0
  O2-  O6  1  0.76180000  0.97600000  0.29150000  1.0
  O2-  O6  1  0.26180000  0.19066667  0.20850000  1.0
  O2-  O6  1  0.26180000  0.52400000  0.20850000  1.0
  O2-  O6  1  0.26180000  0.85733333  0.20850000  1.0
  O2-  O6  1  0.76180000  0.19066667  0.20850000  1.0
  O2-  O6  1  0.76180000  0.52400000  0.20850000  1.0
  O2-  O6  1  0.76180000  0.85733333  0.20850000  1.0
