# generated using pymatgen
data_Li6PS5Br
_symmetry_space_group_name_H-M   'P 1'
_cell_length_a   14.13471100
_cell_length_b   14.13471100
_cell_length_c   14.13471100
_cell_angle_alpha   60.00000000
_cell_angle_beta   120.00000000
_cell_angle_gamma   120.00000000
_symmetry_Int_Tables_number   1
_chemical_formula_structural   Li6PS5Br
_chemical_formula_sum   'Li48 P8 S40 Br8'
_cell_volume   1996.85165239
_cell_formula_units_Z   8
loop_
 _symmetry_equiv_pos_site_id
 _symmetry_equiv_pos_as_xyz
  1  'x, y, z'
loop_
 _atom_type_symbol
 _atom_type_oxidation_number
  Li+  1.0
  P5+  5.0
  S2-  -2.0
  Br-  -1.0
loop_
 _atom_site_type_symbol
 _atom_site_label
 _atom_site_symmetry_multiplicity
 _atom_site_fract_x
 _atom_site_fract_y
 _atom_site_fract_z
 _atom_site_occupancy
  Li+  Li0  1  0.46800000  0.39400000  0.93000000  1.0
  Li+  Li1  1  0.46800000  0.18000000  0.64400000  1.0
  Li+  Li2  1  0.10600000  0.18000000  0.78200000  1.0
  Li+  Li3  1  0.60600000  0.68000000  0.78200000  1.0
  Li+  Li4  1  0.10600000  0.39400000  0.28200000  1.0
  Li+  Li5  1  0.10600000  0.03200000  0.43000000  1.0
  Li+  Li6  1  0.10841530  0.52661733  0.92813956  1.0
  Li+  Li7  1  0.10600000  0.03200000  0.93000000  1.0
  Li+  Li8  1  0.60600000  0.53200000  0.93000000  1.0
  Li+  Li9  1  0.60600000  0.39400000  0.93000000  1.0
  Li+  Li10  1  0.10600000  0.03200000  0.14400000  1.0
  Li+  Li11  1  0.60600000  0.53200000  0.64400000  1.0
  Li+  Li12  1  0.00463200  0.75331412  0.50833757  1.0
  Li+  Li13  1  0.74250000  0.49250000  0.74250000  1.0
  Li+  Li14  1  0.50343670  0.75417384  0.24464260  1.0
  Li+  Li15  1  0.50817845  0.25439283  0.24164127  1.0
  Li+  Li16  1  0.50750000  0.99250000  0.50750000  1.0
  Li+  Li17  1  0.24535520  0.99573016  0.00977332  1.0
  Li+  Li18  1  0.74250000  0.49250000  0.50750000  1.0
  Li+  Li19  1  0.18265000  0.70735000  0.23765000  1.0
  Li+  Li20  1  0.18265000  0.20735000  0.23765000  1.0
  Li+  Li21  1  0.68265000  0.20735000  0.23765000  1.0
  Li+  Li22  1  0.01235000  0.31735000  0.45735000  1.0
  Li+  Li23  1  0.51594545  0.81959872  0.45936095  1.0
  Li+  Li24  1  0.51235000  0.81735000  0.95735000  1.0
  Li+  Li25  1  0.79066413  0.99141195  0.23757891  1.0
  Li+  Li26  1  0.29265000  0.81735000  0.73765000  1.0
  Li+  Li27  1  0.29265000  0.81735000  0.23765000  1.0
  Li+  Li28  1  0.29265000  0.31735000  0.23765000  1.0
  Li+  Li29  1  0.79218879  0.31354338  0.73546417  1.0
  Li+  Li30  1  0.79265000  0.31735000  0.23765000  1.0
  Li+  Li31  1  0.01235000  0.70735000  0.73765000  1.0
  Li+  Li32  1  0.01235000  0.20735000  0.73765000  1.0
  Li+  Li33  1  0.01235000  0.31735000  0.73765000  1.0
  Li+  Li34  1  0.01174711  0.82268157  0.23504409  1.0
  Li+  Li35  1  0.01235000  0.20735000  0.06735000  1.0
  Li+  Li36  1  0.51235000  0.70735000  0.06735000  1.0
  Li+  Li37  1  0.01235000  0.98765000  0.56735000  1.0
  Li+  Li38  1  0.01235000  0.48765000  0.56735000  1.0
  Li+  Li39  1  0.51309474  0.98760670  0.06771365  1.0
  Li+  Li40  1  0.51235000  0.48765000  0.06735000  1.0
  Li+  Li41  1  0.68265000  0.98765000  0.23765000  1.0
  Li+  Li42  1  0.68265000  0.48765000  0.23765000  1.0
  Li+  Li43  1  0.29265000  0.48765000  0.56735000  1.0
  Li+  Li44  1  0.79265000  0.98765000  0.06735000  1.0
  Li+  Li45  1  0.18265000  0.98765000  0.45735000  1.0
  Li+  Li46  1  0.18265000  0.48765000  0.45735000  1.0
  Li+  Li47  1  0.68265000  0.98765000  0.45735000  1.0
  P5+  P48  1  0.24926516  0.74746881  0.50124470  1.0
  P5+  P49  1  0.25000000  0.25000000  0.50000000  1.0
  P5+  P50  1  0.24857963  0.74822053  0.99613161  1.0
  P5+  P51  1  0.25000000  0.25000000  0.00000000  1.0
  P5+  P52  1  0.75000000  0.75000000  0.50000000  1.0
  P5+  P53  1  0.75000000  0.25000000  0.50000000  1.0
  P5+  P54  1  0.75000000  0.75000000  0.00000000  1.0
  P5+  P55  1  0.75000000  0.25000000  0.00000000  1.0
  S2-  S56  1  0.30910000  0.69090000  0.67730000  1.0
  S2-  S57  1  0.30910000  0.19090000  0.67730000  1.0
  S2-  S58  1  0.30910000  0.69090000  0.17730000  1.0
  S2-  S59  1  0.30969618  0.18917906  0.17837893  1.0
  S2-  S60  1  0.80910000  0.69090000  0.67730000  1.0
  S2-  S61  1  0.80910000  0.19090000  0.67730000  1.0
  S2-  S62  1  0.80910000  0.69090000  0.17730000  1.0
  S2-  S63  1  0.80910000  0.19090000  0.17730000  1.0
  S2-  S64  1  0.30828206  0.68909118  0.44118601  1.0
  S2-  S65  1  0.30910000  0.19090000  0.44090000  1.0
  S2-  S66  1  0.30910000  0.69090000  0.94090000  1.0
  S2-  S67  1  0.30910000  0.19090000  0.94090000  1.0
  S2-  S68  1  0.80910000  0.69090000  0.44090000  1.0
  S2-  S69  1  0.80910000  0.19090000  0.44090000  1.0
  S2-  S70  1  0.80910000  0.69090000  0.94090000  1.0
  S2-  S71  1  0.80811958  0.19292522  0.93900890  1.0
  S2-  S72  1  0.30621289  0.92846456  0.44210882  1.0
  S2-  S73  1  0.30910000  0.42730000  0.44090000  1.0
  S2-  S74  1  0.31037881  0.92890898  0.93691166  1.0
  S2-  S75  1  0.30910000  0.42730000  0.94090000  1.0
  S2-  S76  1  0.80910000  0.92730000  0.44090000  1.0
  S2-  S77  1  0.80415901  0.42868503  0.44636490  1.0
  S2-  S78  1  0.80521770  0.92314387  0.94480411  1.0
  S2-  S79  1  0.80910000  0.42730000  0.94090000  1.0
  S2-  S80  1  0.07270000  0.69090000  0.44090000  1.0
  S2-  S81  1  0.07270000  0.19090000  0.44090000  1.0
  S2-  S82  1  0.07270000  0.69090000  0.94090000  1.0
  S2-  S83  1  0.06881182  0.19201948  0.93873499  1.0
  S2-  S84  1  0.57270000  0.69090000  0.44090000  1.0
  S2-  S85  1  0.57270000  0.19090000  0.44090000  1.0
  S2-  S86  1  0.57270000  0.69090000  0.94090000  1.0
  S2-  S87  1  0.57453982  0.19336842  0.94325715  1.0
  S2-  S88  1  0.00000000  0.50000000  0.75000000  1.0
  S2-  S89  1  0.37382081  0.62500342  0.37224865  1.0
  S2-  S90  1  0.37500000  0.12500000  0.37500000  1.0
  S2-  S91  1  0.37500000  0.62500000  0.87500000  1.0
  S2-  S92  1  0.37500000  0.12500000  0.87500000  1.0
  S2-  S93  1  0.87500000  0.62500000  0.37500000  1.0
  S2-  S94  1  0.87500000  0.12500000  0.37500000  1.0
  S2-  S95  1  0.87869433  0.13147172  0.87270421  1.0
  Br-  Br96  1  0.99988835  0.99972236  0.75140398  1.0
  Br-  Br97  1  0.00000000  0.00000000  0.25000000  1.0
  Br-  Br98  1  0.00000000  0.50000000  0.25000000  1.0
  Br-  Br99  1  0.50000000  0.00000000  0.75000000  1.0
  Br-  Br100  1  0.50000000  0.50000000  0.75000000  1.0
  Br-  Br101  1  0.49965251  0.00066156  0.25029822  1.0
  Br-  Br102  1  0.50223938  0.50449841  0.25080193  1.0
  Br-  Br103  1  0.87500000  0.62500000  0.87500000  1.0
