# generated using pymatgen
data_Li5NCl2
_symmetry_space_group_name_H-M   'P 1'
_cell_length_a   10.98300000
_cell_length_b   21.96600000
_cell_length_c   9.73750492
_cell_angle_alpha   79.16481473
_cell_angle_beta   79.16481473
_cell_angle_gamma   60.00000000
_symmetry_Int_Tables_number   1
_chemical_formula_structural   Li5NCl2
_chemical_formula_sum   'Li90 N18 Cl36'
_cell_volume   1985.95747957
_cell_formula_units_Z   18
loop_
 _symmetry_equiv_pos_site_id
 _symmetry_equiv_pos_as_xyz
  1  'x, y, z'
loop_
 _atom_type_symbol
 _atom_type_oxidation_number
  Li+  1.0
  N3-  -3.0
  Cl-  -1.0
loop_
 _atom_site_type_symbol
 _atom_site_label
 _atom_site_symmetry_multiplicity
 _atom_site_fract_x
 _atom_site_fract_y
 _atom_site_fract_z
 _atom_site_occupancy
  Li+  Li1  1  0.10703333  0.05351667  0.03670000  1.0
  Li+  Li1  1  0.10703333  0.38685000  0.03670000  1.0
  Li+  Li1  1  0.10703333  0.72018333  0.03670000  1.0
  Li+  Li1  1  0.10703333  0.22018333  0.03670000  1.0
  Li+  Li1  1  0.10703333  0.55351667  0.03670000  1.0
  Li+  Li1  1  0.10703333  0.88685000  0.03670000  1.0
  Li+  Li1  1  0.44036667  0.05351667  0.03670000  1.0
  Li+  Li1  1  0.44036667  0.38685000  0.03670000  1.0
  Li+  Li1  1  0.44036667  0.72018333  0.03670000  1.0
  Li+  Li1  1  0.44036667  0.22018333  0.03670000  1.0
  Li+  Li1  1  0.44036667  0.55351667  0.03670000  1.0
  Li+  Li1  1  0.44036667  0.88685000  0.03670000  1.0
  Li+  Li1  1  0.77370000  0.05351667  0.03670000  1.0
  Li+  Li1  1  0.77370000  0.38685000  0.03670000  1.0
  Li+  Li1  1  0.77370000  0.72018333  0.03670000  1.0
  Li+  Li1  1  0.77370000  0.22018333  0.03670000  1.0
  Li+  Li1  1  0.77370000  0.55351667  0.03670000  1.0
  Li+  Li1  1  0.77370000  0.88685000  0.03670000  1.0
  Li+  Li1  1  0.22630000  0.11315000  0.96330000  1.0
  Li+  Li1  1  0.22630000  0.44648333  0.96330000  1.0
  Li+  Li1  1  0.22630000  0.77981667  0.96330000  1.0
  Li+  Li1  1  0.22630000  0.27981667  0.96330000  1.0
  Li+  Li1  1  0.22630000  0.61315000  0.96330000  1.0
  Li+  Li1  1  0.22630000  0.94648333  0.96330000  1.0
  Li+  Li1  1  0.55963333  0.11315000  0.96330000  1.0
  Li+  Li1  1  0.55963333  0.44648333  0.96330000  1.0
  Li+  Li1  1  0.55963333  0.77981667  0.96330000  1.0
  Li+  Li1  1  0.55963333  0.27981667  0.96330000  1.0
  Li+  Li1  1  0.55963333  0.61315000  0.96330000  1.0
  Li+  Li1  1  0.55963333  0.94648333  0.96330000  1.0
  Li+  Li1  1  0.89296667  0.11315000  0.96330000  1.0
  Li+  Li1  1  0.89296667  0.44648333  0.96330000  1.0
  Li+  Li1  1  0.89296667  0.77981667  0.96330000  1.0
  Li+  Li1  1  0.89296667  0.27981667  0.96330000  1.0
  Li+  Li1  1  0.89296667  0.61315000  0.96330000  1.0
  Li+  Li1  1  0.89296667  0.94648333  0.96330000  1.0
  Li+  Li2  1  0.31056667  0.15528333  0.20490000  1.0
  Li+  Li2  1  0.31056667  0.48861667  0.20490000  1.0
  Li+  Li2  1  0.31056667  0.82195000  0.20490000  1.0
  Li+  Li2  1  0.31056667  0.32195000  0.20490000  1.0
  Li+  Li2  1  0.31056667  0.65528333  0.20490000  1.0
  Li+  Li2  1  0.31056667  0.98861667  0.20490000  1.0
  Li+  Li2  1  0.64390000  0.15528333  0.20490000  1.0
  Li+  Li2  1  0.64390000  0.48861667  0.20490000  1.0
  Li+  Li2  1  0.64390000  0.82195000  0.20490000  1.0
  Li+  Li2  1  0.64390000  0.32195000  0.20490000  1.0
  Li+  Li2  1  0.64390000  0.65528333  0.20490000  1.0
  Li+  Li2  1  0.64390000  0.98861667  0.20490000  1.0
  Li+  Li2  1  0.97723333  0.15528333  0.20490000  1.0
  Li+  Li2  1  0.97723333  0.48861667  0.20490000  1.0
  Li+  Li2  1  0.97723333  0.82195000  0.20490000  1.0
  Li+  Li2  1  0.97723333  0.32195000  0.20490000  1.0
  Li+  Li2  1  0.97723333  0.65528333  0.20490000  1.0
  Li+  Li2  1  0.97723333  0.98861667  0.20490000  1.0
  Li+  Li2  1  0.02276667  0.01138333  0.79510000  1.0
  Li+  Li2  1  0.02276667  0.34471667  0.79510000  1.0
  Li+  Li2  1  0.02276667  0.67805000  0.79510000  1.0
  Li+  Li2  1  0.02276667  0.17805000  0.79510000  1.0
  Li+  Li2  1  0.02276667  0.51138333  0.79510000  1.0
  Li+  Li2  1  0.02276667  0.84471667  0.79510000  1.0
  Li+  Li2  1  0.35610000  0.01138333  0.79510000  1.0
  Li+  Li2  1  0.35610000  0.34471667  0.79510000  1.0
  Li+  Li2  1  0.35610000  0.67805000  0.79510000  1.0
  Li+  Li2  1  0.35610000  0.17805000  0.79510000  1.0
  Li+  Li2  1  0.35610000  0.51138333  0.79510000  1.0
  Li+  Li2  1  0.35610000  0.84471667  0.79510000  1.0
  Li+  Li2  1  0.68943333  0.01138333  0.79510000  1.0
  Li+  Li2  1  0.68943333  0.34471667  0.79510000  1.0
  Li+  Li2  1  0.68943333  0.67805000  0.79510000  1.0
  Li+  Li2  1  0.68943333  0.17805000  0.79510000  1.0
  Li+  Li2  1  0.68943333  0.51138333  0.79510000  1.0
  Li+  Li2  1  0.68943333  0.84471667  0.79510000  1.0
  Li+  Li3  1  0.16666667  0.08333333  0.50000000  1.0
  Li+  Li3  1  0.16666667  0.41666667  0.50000000  1.0
  Li+  Li3  1  0.16666667  0.75000000  0.50000000  1.0
  Li+  Li3  1  0.16666667  0.25000000  0.50000000  1.0
  Li+  Li3  1  0.16666667  0.58333333  0.50000000  1.0
  Li+  Li3  1  0.16666667  0.91666667  0.50000000  1.0
  Li+  Li3  1  0.50000000  0.08333333  0.50000000  1.0
  Li+  Li3  1  0.50000000  0.41666667  0.50000000  1.0
  Li+  Li3  1  0.50000000  0.75000000  0.50000000  1.0
  Li+  Li3  1  0.50000000  0.25000000  0.50000000  1.0
  Li+  Li3  1  0.50000000  0.58333333  0.50000000  1.0
  Li+  Li3  1  0.50000000  0.91666667  0.50000000  1.0
  Li+  Li3  1  0.83333333  0.08333333  0.50000000  1.0
  Li+  Li3  1  0.83333333  0.41666667  0.50000000  1.0
  Li+  Li3  1  0.83333333  0.75000000  0.50000000  1.0
  Li+  Li3  1  0.83333333  0.25000000  0.50000000  1.0
  Li+  Li3  1  0.83333333  0.58333333  0.50000000  1.0
  Li+  Li3  1  0.83333333  0.91666667  0.50000000  1.0
  N3-  N1  1  0.00000000  0.00000000  0.00000000  1.0
  N3-  N1  1  0.00000000  0.33333333  0.00000000  1.0
  N3-  N1  1  0.00000000  0.66666667  0.00000000  1.0
  N3-  N1  1  0.00000000  0.16666667  0.00000000  1.0
  N3-  N1  1  0.00000000  0.50000000  0.00000000  1.0
  N3-  N1  1  0.00000000  0.83333333  0.00000000  1.0
  N3-  N1  1  0.33333333  0.00000000  0.00000000  1.0
  N3-  N1  1  0.33333333  0.33333333  0.00000000  1.0
  N3-  N1  1  0.33333333  0.66666667  0.00000000  1.0
  N3-  N1  1  0.33333333  0.16666667  0.00000000  1.0
  N3-  N1  1  0.33333333  0.50000000  0.00000000  1.0
  N3-  N1  1  0.33333333  0.83333333  0.00000000  1.0
  N3-  N1  1  0.66666667  0.00000000  0.00000000  1.0
  N3-  N1  1  0.66666667  0.33333333  0.00000000  1.0
  N3-  N1  1  0.66666667  0.66666667  0.00000000  1.0
  N3-  N1  1  0.66666667  0.16666667  0.00000000  1.0
  N3-  N1  1  0.66666667  0.50000000  0.00000000  1.0
  N3-  N1  1  0.66666667  0.83333333  0.00000000  1.0
  Cl-  Cl1  1  0.26060000  0.13030000  0.65460000  1.0
  Cl-  Cl1  1  0.26060000  0.46363333  0.65460000  1.0
  Cl-  Cl1  1  0.26060000  0.79696667  0.65460000  1.0
  Cl-  Cl1  1  0.26060000  0.29696667  0.65460000  1.0
  Cl-  Cl1  1  0.26060000  0.63030000  0.65460000  1.0
  Cl-  Cl1  1  0.26060000  0.96363333  0.65460000  1.0
  Cl-  Cl1  1  0.59393333  0.13030000  0.65460000  1.0
  Cl-  Cl1  1  0.59393333  0.46363333  0.65460000  1.0
  Cl-  Cl1  1  0.59393333  0.79696667  0.65460000  1.0
  Cl-  Cl1  1  0.59393333  0.29696667  0.65460000  1.0
  Cl-  Cl1  1  0.59393333  0.63030000  0.65460000  1.0
  Cl-  Cl1  1  0.59393333  0.96363333  0.65460000  1.0
  Cl-  Cl1  1  0.92726667  0.13030000  0.65460000  1.0
  Cl-  Cl1  1  0.92726667  0.46363333  0.65460000  1.0
  Cl-  Cl1  1  0.92726667  0.79696667  0.65460000  1.0
  Cl-  Cl1  1  0.92726667  0.29696667  0.65460000  1.0
  Cl-  Cl1  1  0.92726667  0.63030000  0.65460000  1.0
  Cl-  Cl1  1  0.92726667  0.96363333  0.65460000  1.0
  Cl-  Cl1  1  0.07273333  0.03636667  0.34540000  1.0
  Cl-  Cl1  1  0.07273333  0.36970000  0.34540000  1.0
  Cl-  Cl1  1  0.07273333  0.70303333  0.34540000  1.0
  Cl-  Cl1  1  0.07273333  0.20303333  0.34540000  1.0
  Cl-  Cl1  1  0.07273333  0.53636667  0.34540000  1.0
  Cl-  Cl1  1  0.07273333  0.86970000  0.34540000  1.0
  Cl-  Cl1  1  0.40606667  0.03636667  0.34540000  1.0
  Cl-  Cl1  1  0.40606667  0.36970000  0.34540000  1.0
  Cl-  Cl1  1  0.40606667  0.70303333  0.34540000  1.0
  Cl-  Cl1  1  0.40606667  0.20303333  0.34540000  1.0
  Cl-  Cl1  1  0.40606667  0.53636667  0.34540000  1.0
  Cl-  Cl1  1  0.40606667  0.86970000  0.34540000  1.0
  Cl-  Cl1  1  0.73940000  0.03636667  0.34540000  1.0
  Cl-  Cl1  1  0.73940000  0.36970000  0.34540000  1.0
  Cl-  Cl1  1  0.73940000  0.70303333  0.34540000  1.0
  Cl-  Cl1  1  0.73940000  0.20303333  0.34540000  1.0
  Cl-  Cl1  1  0.73940000  0.53636667  0.34540000  1.0
  Cl-  Cl1  1  0.73940000  0.86970000  0.34540000  1.0
