# generated using pymatgen
data_Li25GeP3(S5I)4
_symmetry_space_group_name_H-M   'P 1'
_cell_length_a   14.44734705
_cell_length_b   21.67102058
_cell_length_c   14.44734705
_cell_angle_alpha   120.00000000
_cell_angle_beta   120.00000000
_cell_angle_gamma   60.00000000
_symmetry_Int_Tables_number   1
_chemical_formula_structural   Li25GeP3(S5I)4
_chemical_formula_sum   'Li75 Ge3 P9 S60 I12'
_cell_volume   3198.45745003
_cell_formula_units_Z   3
loop_
 _symmetry_equiv_pos_site_id
 _symmetry_equiv_pos_as_xyz
  1  'x, y, z'
loop_
 _atom_type_symbol
 _atom_type_oxidation_number
  Li+  1.0
  Ge4+  4.0
  P5+  5.0
  S2-  -2.0
  I-  -1.0
loop_
 _atom_site_type_symbol
 _atom_site_label
 _atom_site_symmetry_multiplicity
 _atom_site_fract_x
 _atom_site_fract_y
 _atom_site_fract_z
 _atom_site_occupancy
  Li+  Li0  1  0.99150000  0.50566667  0.24150000  1.0
  Li+  Li1  1  0.99150000  0.17233333  0.24150000  1.0
  Li+  Li2  1  0.99150000  0.83900000  0.24150000  1.0
  Li+  Li3  1  0.99150000  0.50566667  0.74150000  1.0
  Li+  Li4  1  0.99150000  0.17233333  0.74150000  1.0
  Li+  Li5  1  0.99150000  0.83900000  0.74150000  1.0
  Li+  Li6  1  0.25850000  0.66100000  0.24150000  1.0
  Li+  Li7  1  0.25850000  0.32766667  0.24150000  1.0
  Li+  Li8  1  0.25850000  0.99433333  0.24150000  1.0
  Li+  Li9  1  0.99150000  0.50566667  0.50850000  1.0
  Li+  Li10  1  0.99150000  0.17233333  0.50850000  1.0
  Li+  Li11  1  0.99150000  0.83900000  0.50850000  1.0
  Li+  Li12  1  0.49150000  0.50566667  0.00850000  1.0
  Li+  Li13  1  0.49150000  0.17233333  0.00850000  1.0
  Li+  Li14  1  0.49150000  0.83900000  0.00850000  1.0
  Li+  Li15  1  0.49150000  0.50566667  0.50850000  1.0
  Li+  Li16  1  0.49150000  0.17233333  0.50850000  1.0
  Li+  Li17  1  0.49150000  0.83900000  0.50850000  1.0
  Li+  Li18  1  0.25850000  0.66100000  0.50850000  1.0
  Li+  Li19  1  0.25850000  0.32766667  0.50850000  1.0
  Li+  Li20  1  0.25850000  0.99433333  0.50850000  1.0
  Li+  Li21  1  0.75850000  0.50566667  0.50850000  1.0
  Li+  Li22  1  0.75850000  0.17233333  0.50850000  1.0
  Li+  Li23  1  0.75850000  0.83900000  0.50850000  1.0
  Li+  Li24  1  0.25850000  0.50566667  0.50850000  1.0
  Li+  Li25  1  0.25850000  0.17233333  0.50850000  1.0
  Li+  Li26  1  0.25850000  0.83900000  0.50850000  1.0
  Li+  Li27  1  0.48725000  0.53990000  0.78435000  1.0
  Li+  Li28  1  0.48725000  0.20656667  0.78435000  1.0
  Li+  Li29  1  0.48725000  0.87323333  0.78435000  1.0
  Li+  Li30  1  0.48725000  0.47710000  0.69015000  1.0
  Li+  Li31  1  0.48725000  0.14376667  0.69015000  1.0
  Li+  Li32  1  0.48725000  0.81043333  0.69015000  1.0
  Li+  Li33  1  0.98725000  0.65816667  0.28435000  1.0
  Li+  Li34  1  0.98725000  0.32483333  0.28435000  1.0
  Li+  Li35  1  0.98725000  0.99150000  0.28435000  1.0
  Li+  Li36  1  0.98725000  0.65816667  0.78435000  1.0
  Li+  Li37  1  0.98725000  0.32483333  0.78435000  1.0
  Li+  Li38  1  0.98725000  0.99150000  0.78435000  1.0
  Li+  Li39  1  0.48725000  0.65816667  0.28435000  1.0
  Li+  Li40  1  0.48725000  0.32483333  0.28435000  1.0
  Li+  Li41  1  0.48725000  0.99150000  0.28435000  1.0
  Li+  Li42  1  0.48725000  0.65816667  0.78435000  1.0
  Li+  Li43  1  0.48725000  0.32483333  0.78435000  1.0
  Li+  Li44  1  0.48725000  0.99150000  0.78435000  1.0
  Li+  Li45  1  0.98725000  0.65816667  0.19015000  1.0
  Li+  Li46  1  0.98725000  0.32483333  0.19015000  1.0
  Li+  Li47  1  0.98725000  0.99150000  0.19015000  1.0
  Li+  Li48  1  0.48725000  0.65816667  0.19015000  1.0
  Li+  Li49  1  0.48725000  0.32483333  0.19015000  1.0
  Li+  Li50  1  0.48725000  0.99150000  0.19015000  1.0
  Li+  Li51  1  0.80985000  0.65816667  0.28435000  1.0
  Li+  Li52  1  0.80985000  0.32483333  0.28435000  1.0
  Li+  Li53  1  0.80985000  0.99150000  0.28435000  1.0
  Li+  Li54  1  0.80985000  0.65816667  0.78435000  1.0
  Li+  Li55  1  0.80985000  0.32483333  0.78435000  1.0
  Li+  Li56  1  0.80985000  0.99150000  0.78435000  1.0
  Li+  Li57  1  0.80985000  0.65816667  0.01275000  1.0
  Li+  Li58  1  0.80985000  0.32483333  0.01275000  1.0
  Li+  Li59  1  0.80985000  0.99150000  0.01275000  1.0
  Li+  Li60  1  0.30985000  0.65816667  0.01275000  1.0
  Li+  Li61  1  0.30985000  0.32483333  0.01275000  1.0
  Li+  Li62  1  0.30985000  0.99150000  0.01275000  1.0
  Li+  Li63  1  0.30985000  0.65816667  0.51275000  1.0
  Li+  Li64  1  0.30985000  0.32483333  0.51275000  1.0
  Li+  Li65  1  0.30985000  0.99150000  0.51275000  1.0
  Li+  Li66  1  0.71565000  0.65816667  0.51275000  1.0
  Li+  Li67  1  0.71565000  0.32483333  0.51275000  1.0
  Li+  Li68  1  0.71565000  0.99150000  0.51275000  1.0
  Li+  Li69  1  0.80985000  0.47710000  0.01275000  1.0
  Li+  Li70  1  0.80985000  0.14376667  0.01275000  1.0
  Li+  Li71  1  0.80985000  0.81043333  0.01275000  1.0
  Li+  Li72  1  0.30985000  0.47710000  0.01275000  1.0
  Li+  Li73  1  0.30985000  0.14376667  0.01275000  1.0
  Li+  Li74  1  0.30985000  0.81043333  0.01275000  1.0
  Ge4+  Ge75  1  0.25000000  0.50000000  0.25000000  1.0
  Ge4+  Ge76  1  0.25000000  0.16666667  0.25000000  1.0
  Ge4+  Ge77  1  0.25000000  0.83333333  0.25000000  1.0
  P5+  P78  1  0.75000000  0.50000000  0.25000000  1.0
  P5+  P79  1  0.75000000  0.16666667  0.25000000  1.0
  P5+  P80  1  0.75000000  0.83333333  0.25000000  1.0
  P5+  P81  1  0.75000000  0.50000000  0.75000000  1.0
  P5+  P82  1  0.75000000  0.16666667  0.75000000  1.0
  P5+  P83  1  0.75000000  0.83333333  0.75000000  1.0
  P5+  P84  1  0.25000000  0.50000000  0.75000000  1.0
  P5+  P85  1  0.25000000  0.16666667  0.75000000  1.0
  P5+  P86  1  0.25000000  0.83333333  0.75000000  1.0
  S2-  S87  1  0.92713500  0.46063667  0.30904500  1.0
  S2-  S88  1  0.92713500  0.12730333  0.30904500  1.0
  S2-  S89  1  0.92713500  0.79397000  0.30904500  1.0
  S2-  S90  1  0.92713500  0.46063667  0.80904500  1.0
  S2-  S91  1  0.92713500  0.12730333  0.80904500  1.0
  S2-  S92  1  0.92713500  0.79397000  0.80904500  1.0
  S2-  S93  1  0.42713500  0.46063667  0.30904500  1.0
  S2-  S94  1  0.42713500  0.12730333  0.30904500  1.0
  S2-  S95  1  0.42713500  0.79397000  0.30904500  1.0
  S2-  S96  1  0.42713500  0.46063667  0.80904500  1.0
  S2-  S97  1  0.42713500  0.12730333  0.80904500  1.0
  S2-  S98  1  0.42713500  0.79397000  0.80904500  1.0
  S2-  S99  1  0.69095500  0.46063667  0.30904500  1.0
  S2-  S100  1  0.69095500  0.12730333  0.30904500  1.0
  S2-  S101  1  0.69095500  0.79397000  0.30904500  1.0
  S2-  S102  1  0.69095500  0.46063667  0.80904500  1.0
  S2-  S103  1  0.69095500  0.12730333  0.80904500  1.0
  S2-  S104  1  0.69095500  0.79397000  0.80904500  1.0
  S2-  S105  1  0.19095500  0.46063667  0.30904500  1.0
  S2-  S106  1  0.19095500  0.12730333  0.30904500  1.0
  S2-  S107  1  0.19095500  0.79397000  0.30904500  1.0
  S2-  S108  1  0.19095500  0.46063667  0.80904500  1.0
  S2-  S109  1  0.19095500  0.12730333  0.80904500  1.0
  S2-  S110  1  0.19095500  0.79397000  0.80904500  1.0
  S2-  S111  1  0.69095500  0.46063667  0.07286500  1.0
  S2-  S112  1  0.69095500  0.12730333  0.07286500  1.0
  S2-  S113  1  0.69095500  0.79397000  0.07286500  1.0
  S2-  S114  1  0.69095500  0.46063667  0.57286500  1.0
  S2-  S115  1  0.69095500  0.12730333  0.57286500  1.0
  S2-  S116  1  0.69095500  0.79397000  0.57286500  1.0
  S2-  S117  1  0.19095500  0.46063667  0.07286500  1.0
  S2-  S118  1  0.19095500  0.12730333  0.07286500  1.0
  S2-  S119  1  0.19095500  0.79397000  0.07286500  1.0
  S2-  S120  1  0.19095500  0.46063667  0.57286500  1.0
  S2-  S121  1  0.19095500  0.12730333  0.57286500  1.0
  S2-  S122  1  0.19095500  0.79397000  0.57286500  1.0
  S2-  S123  1  0.69095500  0.61809000  0.30904500  1.0
  S2-  S124  1  0.69095500  0.28475667  0.30904500  1.0
  S2-  S125  1  0.69095500  0.95142333  0.30904500  1.0
  S2-  S126  1  0.69095500  0.61809000  0.80904500  1.0
  S2-  S127  1  0.69095500  0.28475667  0.80904500  1.0
  S2-  S128  1  0.69095500  0.95142333  0.80904500  1.0
  S2-  S129  1  0.19095500  0.61809000  0.30904500  1.0
  S2-  S130  1  0.19095500  0.28475667  0.30904500  1.0
  S2-  S131  1  0.19095500  0.95142333  0.30904500  1.0
  S2-  S132  1  0.19095500  0.61809000  0.80904500  1.0
  S2-  S133  1  0.19095500  0.28475667  0.80904500  1.0
  S2-  S134  1  0.19095500  0.95142333  0.80904500  1.0
  S2-  S135  1  0.87500000  0.58333333  0.12500000  1.0
  S2-  S136  1  0.87500000  0.25000000  0.12500000  1.0
  S2-  S137  1  0.87500000  0.91666667  0.12500000  1.0
  S2-  S138  1  0.87500000  0.58333333  0.62500000  1.0
  S2-  S139  1  0.87500000  0.25000000  0.62500000  1.0
  S2-  S140  1  0.87500000  0.91666667  0.62500000  1.0
  S2-  S141  1  0.37500000  0.58333333  0.12500000  1.0
  S2-  S142  1  0.37500000  0.25000000  0.12500000  1.0
  S2-  S143  1  0.37500000  0.91666667  0.12500000  1.0
  S2-  S144  1  0.37500000  0.58333333  0.62500000  1.0
  S2-  S145  1  0.37500000  0.25000000  0.62500000  1.0
  S2-  S146  1  0.37500000  0.91666667  0.62500000  1.0
  I-  I147  1  0.00000000  0.66666667  0.00000000  1.0
  I-  I148  1  0.00000000  0.33333333  0.00000000  1.0
  I-  I149  1  0.00000000  0.00000000  0.00000000  1.0
  I-  I150  1  0.00000000  0.66666667  0.50000000  1.0
  I-  I151  1  0.00000000  0.33333333  0.50000000  1.0
  I-  I152  1  0.00000000  0.00000000  0.50000000  1.0
  I-  I153  1  0.50000000  0.66666667  0.00000000  1.0
  I-  I154  1  0.50000000  0.33333333  0.00000000  1.0
  I-  I155  1  0.50000000  0.00000000  0.00000000  1.0
  I-  I156  1  0.50000000  0.66666667  0.50000000  1.0
  I-  I157  1  0.50000000  0.33333333  0.50000000  1.0
  I-  I158  1  0.50000000  0.00000000  0.50000000  1.0
