# generated using pymatgen
data_Li25GeP3(S5I)4
_symmetry_space_group_name_H-M   'P 1'
_cell_length_a   21.63625836
_cell_length_b   14.42417223
_cell_length_c   14.42417223
_cell_angle_alpha   60.00000000
_cell_angle_beta   60.00000000
_cell_angle_gamma   60.00000000
_symmetry_Int_Tables_number   1
_chemical_formula_structural   Li25GeP3(S5I)4
_chemical_formula_sum   'Li75 Ge3 P9 S60 I12'
_cell_volume   3183.09030387
_cell_formula_units_Z   3
loop_
 _symmetry_equiv_pos_site_id
 _symmetry_equiv_pos_as_xyz
  1  'x, y, z'
loop_
 _atom_type_symbol
 _atom_type_oxidation_number
  Li+  1.0
  Ge4+  4.0
  P5+  5.0
  S2-  -2.0
  I-  -1.0
loop_
 _atom_site_type_symbol
 _atom_site_label
 _atom_site_symmetry_multiplicity
 _atom_site_fract_x
 _atom_site_fract_y
 _atom_site_fract_z
 _atom_site_occupancy
  Li+  Li0  1  0.16100000  0.00850000  0.24150000  1.0
  Li+  Li0  1  0.49433333  0.00850000  0.24150000  1.0
  Li+  Li0  1  0.82766667  0.00850000  0.24150000  1.0
  Li+  Li1  1  0.16100000  0.00850000  0.74150000  1.0
  Li+  Li1  1  0.49433333  0.00850000  0.74150000  1.0
  Li+  Li1  1  0.82766667  0.00850000  0.74150000  1.0
  Li+  Li2  1  0.00566667  0.74150000  0.24150000  1.0
  Li+  Li2  1  0.33900000  0.74150000  0.24150000  1.0
  Li+  Li2  1  0.67233333  0.74150000  0.24150000  1.0
  Li+  Li3  1  0.16100000  0.00850000  0.50850000  1.0
  Li+  Li3  1  0.49433333  0.00850000  0.50850000  1.0
  Li+  Li3  1  0.82766667  0.00850000  0.50850000  1.0
  Li+  Li4  1  0.16100000  0.50850000  0.00850000  1.0
  Li+  Li4  1  0.49433333  0.50850000  0.00850000  1.0
  Li+  Li4  1  0.82766667  0.50850000  0.00850000  1.0
  Li+  Li5  1  0.16100000  0.50850000  0.50850000  1.0
  Li+  Li5  1  0.49433333  0.50850000  0.50850000  1.0
  Li+  Li5  1  0.82766667  0.50850000  0.50850000  1.0
  Li+  Li6  1  0.00566667  0.74150000  0.50850000  1.0
  Li+  Li6  1  0.33900000  0.74150000  0.50850000  1.0
  Li+  Li6  1  0.67233333  0.74150000  0.50850000  1.0
  Li+  Li7  1  0.16100000  0.24150000  0.50850000  1.0
  Li+  Li7  1  0.49433333  0.24150000  0.50850000  1.0
  Li+  Li7  1  0.82766667  0.24150000  0.50850000  1.0
  Li+  Li8  1  0.16100000  0.74150000  0.50850000  1.0
  Li+  Li8  1  0.49433333  0.74150000  0.50850000  1.0
  Li+  Li8  1  0.82766667  0.74150000  0.50850000  1.0
  Li+  Li9  1  0.12676667  0.51275000  0.78435000  1.0
  Li+  Li9  1  0.46010000  0.51275000  0.78435000  1.0
  Li+  Li9  1  0.79343333  0.51275000  0.78435000  1.0
  Li+  Li10  1  0.18956667  0.51275000  0.69015000  1.0
  Li+  Li10  1  0.52290000  0.51275000  0.69015000  1.0
  Li+  Li10  1  0.85623333  0.51275000  0.69015000  1.0
  Li+  Li11  1  0.00850000  0.01275000  0.28435000  1.0
  Li+  Li11  1  0.34183333  0.01275000  0.28435000  1.0
  Li+  Li11  1  0.67516667  0.01275000  0.28435000  1.0
  Li+  Li12  1  0.00850000  0.01275000  0.78435000  1.0
  Li+  Li12  1  0.34183333  0.01275000  0.78435000  1.0
  Li+  Li12  1  0.67516667  0.01275000  0.78435000  1.0
  Li+  Li13  1  0.00850000  0.51275000  0.28435000  1.0
  Li+  Li13  1  0.34183333  0.51275000  0.28435000  1.0
  Li+  Li13  1  0.67516667  0.51275000  0.28435000  1.0
  Li+  Li14  1  0.00850000  0.51275000  0.78435000  1.0
  Li+  Li14  1  0.34183333  0.51275000  0.78435000  1.0
  Li+  Li14  1  0.67516667  0.51275000  0.78435000  1.0
  Li+  Li15  1  0.00850000  0.01275000  0.19015000  1.0
  Li+  Li15  1  0.34183333  0.01275000  0.19015000  1.0
  Li+  Li15  1  0.67516667  0.01275000  0.19015000  1.0
  Li+  Li16  1  0.00850000  0.51275000  0.19015000  1.0
  Li+  Li16  1  0.34183333  0.51275000  0.19015000  1.0
  Li+  Li16  1  0.67516667  0.51275000  0.19015000  1.0
  Li+  Li17  1  0.00850000  0.19015000  0.28435000  1.0
  Li+  Li17  1  0.34183333  0.19015000  0.28435000  1.0
  Li+  Li17  1  0.67516667  0.19015000  0.28435000  1.0
  Li+  Li18  1  0.00850000  0.19015000  0.78435000  1.0
  Li+  Li18  1  0.34183333  0.19015000  0.78435000  1.0
  Li+  Li18  1  0.67516667  0.19015000  0.78435000  1.0
  Li+  Li19  1  0.00850000  0.19015000  0.01275000  1.0
  Li+  Li19  1  0.34183333  0.19015000  0.01275000  1.0
  Li+  Li19  1  0.67516667  0.19015000  0.01275000  1.0
  Li+  Li20  1  0.00850000  0.69015000  0.01275000  1.0
  Li+  Li20  1  0.34183333  0.69015000  0.01275000  1.0
  Li+  Li20  1  0.67516667  0.69015000  0.01275000  1.0
  Li+  Li21  1  0.00850000  0.69015000  0.51275000  1.0
  Li+  Li21  1  0.34183333  0.69015000  0.51275000  1.0
  Li+  Li21  1  0.67516667  0.69015000  0.51275000  1.0
  Li+  Li22  1  0.00850000  0.28435000  0.51275000  1.0
  Li+  Li22  1  0.34183333  0.28435000  0.51275000  1.0
  Li+  Li22  1  0.67516667  0.28435000  0.51275000  1.0
  Li+  Li23  1  0.18956667  0.19015000  0.01275000  1.0
  Li+  Li23  1  0.52290000  0.19015000  0.01275000  1.0
  Li+  Li23  1  0.85623333  0.19015000  0.01275000  1.0
  Li+  Li24  1  0.18956667  0.69015000  0.01275000  1.0
  Li+  Li24  1  0.52290000  0.69015000  0.01275000  1.0
  Li+  Li24  1  0.85623333  0.69015000  0.01275000  1.0
  Ge4+  Ge25  1  0.16666667  0.75000000  0.25000000  1.0
  Ge4+  Ge25  1  0.50000000  0.75000000  0.25000000  1.0
  Ge4+  Ge25  1  0.83333333  0.75000000  0.25000000  1.0
  P5+  P26  1  0.16666667  0.25000000  0.25000000  1.0
  P5+  P26  1  0.50000000  0.25000000  0.25000000  1.0
  P5+  P26  1  0.83333333  0.25000000  0.25000000  1.0
  P5+  P27  1  0.16666667  0.25000000  0.75000000  1.0
  P5+  P27  1  0.50000000  0.25000000  0.75000000  1.0
  P5+  P27  1  0.83333333  0.25000000  0.75000000  1.0
  P5+  P28  1  0.16666667  0.75000000  0.75000000  1.0
  P5+  P28  1  0.50000000  0.75000000  0.75000000  1.0
  P5+  P28  1  0.83333333  0.75000000  0.75000000  1.0
  S2-  S2  1  0.20603000  0.07286500  0.30904500  1.0
  S2-  S2  1  0.53936333  0.07286500  0.30904500  1.0
  S2-  S2  1  0.87269667  0.07286500  0.30904500  1.0
  S2-  S2  1  0.20603000  0.07286500  0.80904500  1.0
  S2-  S2  1  0.53936333  0.07286500  0.80904500  1.0
  S2-  S2  1  0.87269667  0.07286500  0.80904500  1.0
  S2-  S2  1  0.20603000  0.57286500  0.30904500  1.0
  S2-  S2  1  0.53936333  0.57286500  0.30904500  1.0
  S2-  S2  1  0.87269667  0.57286500  0.30904500  1.0
  S2-  S2  1  0.20603000  0.57286500  0.80904500  1.0
  S2-  S2  1  0.53936333  0.57286500  0.80904500  1.0
  S2-  S2  1  0.87269667  0.57286500  0.80904500  1.0
  S2-  S2  1  0.20603000  0.30904500  0.30904500  1.0
  S2-  S2  1  0.53936333  0.30904500  0.30904500  1.0
  S2-  S2  1  0.87269667  0.30904500  0.30904500  1.0
  S2-  S2  1  0.20603000  0.30904500  0.80904500  1.0
  S2-  S2  1  0.53936333  0.30904500  0.80904500  1.0
  S2-  S2  1  0.87269667  0.30904500  0.80904500  1.0
  S2-  S2  1  0.20603000  0.80904500  0.30904500  1.0
  S2-  S2  1  0.53936333  0.80904500  0.30904500  1.0
  S2-  S2  1  0.87269667  0.80904500  0.30904500  1.0
  S2-  S2  1  0.20603000  0.80904500  0.80904500  1.0
  S2-  S2  1  0.53936333  0.80904500  0.80904500  1.0
  S2-  S2  1  0.87269667  0.80904500  0.80904500  1.0
  S2-  S2  1  0.20603000  0.30904500  0.07286500  1.0
  S2-  S2  1  0.53936333  0.30904500  0.07286500  1.0
  S2-  S2  1  0.87269667  0.30904500  0.07286500  1.0
  S2-  S2  1  0.20603000  0.30904500  0.57286500  1.0
  S2-  S2  1  0.53936333  0.30904500  0.57286500  1.0
  S2-  S2  1  0.87269667  0.30904500  0.57286500  1.0
  S2-  S2  1  0.20603000  0.80904500  0.07286500  1.0
  S2-  S2  1  0.53936333  0.80904500  0.07286500  1.0
  S2-  S2  1  0.87269667  0.80904500  0.07286500  1.0
  S2-  S2  1  0.20603000  0.80904500  0.57286500  1.0
  S2-  S2  1  0.53936333  0.80904500  0.57286500  1.0
  S2-  S2  1  0.87269667  0.80904500  0.57286500  1.0
  S2-  S2  1  0.04857667  0.30904500  0.30904500  1.0
  S2-  S2  1  0.38191000  0.30904500  0.30904500  1.0
  S2-  S2  1  0.71524333  0.30904500  0.30904500  1.0
  S2-  S2  1  0.04857667  0.30904500  0.80904500  1.0
  S2-  S2  1  0.38191000  0.30904500  0.80904500  1.0
  S2-  S2  1  0.71524333  0.30904500  0.80904500  1.0
  S2-  S2  1  0.04857667  0.80904500  0.30904500  1.0
  S2-  S2  1  0.38191000  0.80904500  0.30904500  1.0
  S2-  S2  1  0.71524333  0.80904500  0.30904500  1.0
  S2-  S2  1  0.04857667  0.80904500  0.80904500  1.0
  S2-  S2  1  0.38191000  0.80904500  0.80904500  1.0
  S2-  S2  1  0.71524333  0.80904500  0.80904500  1.0
  S2-  S45  1  0.08333333  0.12500000  0.12500000  1.0
  S2-  S45  1  0.41666667  0.12500000  0.12500000  1.0
  S2-  S45  1  0.75000000  0.12500000  0.12500000  1.0
  S2-  S46  1  0.08333333  0.12500000  0.62500000  1.0
  S2-  S46  1  0.41666667  0.12500000  0.62500000  1.0
  S2-  S46  1  0.75000000  0.12500000  0.62500000  1.0
  S2-  S47  1  0.08333333  0.62500000  0.12500000  1.0
  S2-  S47  1  0.41666667  0.62500000  0.12500000  1.0
  S2-  S47  1  0.75000000  0.62500000  0.12500000  1.0
  S2-  S48  1  0.08333333  0.62500000  0.62500000  1.0
  S2-  S48  1  0.41666667  0.62500000  0.62500000  1.0
  S2-  S48  1  0.75000000  0.62500000  0.62500000  1.0
  I-  I49  1  0.00000000  0.00000000  0.00000000  1.0
  I-  I49  1  0.33333333  0.00000000  0.00000000  1.0
  I-  I49  1  0.66666667  0.00000000  0.00000000  1.0
  I-  I50  1  0.00000000  0.00000000  0.50000000  1.0
  I-  I50  1  0.33333333  0.00000000  0.50000000  1.0
  I-  I50  1  0.66666667  0.00000000  0.50000000  1.0
  I-  I51  1  0.00000000  0.50000000  0.00000000  1.0
  I-  I51  1  0.33333333  0.50000000  0.00000000  1.0
  I-  I51  1  0.66666667  0.50000000  0.00000000  1.0
  I-  I52  1  0.00000000  0.50000000  0.50000000  1.0
  I-  I52  1  0.33333333  0.50000000  0.50000000  1.0
  I-  I52  1  0.66666667  0.50000000  0.50000000  1.0
