# generated using pymatgen
data_Li61SnP9(S5I)10
_symmetry_space_group_name_H-M   'P 1'
_cell_length_a   7.20211591
_cell_length_b   36.01057956
_cell_length_c   14.40423182
_cell_angle_alpha   60.00000000
_cell_angle_beta   120.00000000
_cell_angle_gamma   120.00000000
_symmetry_Int_Tables_number   1
_chemical_formula_structural   Li61SnP9(S5I)10
_chemical_formula_sum   'Li61 Sn1 P9 S50 I10'
_cell_volume   2641.58945354
_cell_formula_units_Z   1
loop_
 _symmetry_equiv_pos_site_id
 _symmetry_equiv_pos_as_xyz
  1  'x, y, z'
loop_
 _atom_type_symbol
 _atom_type_oxidation_number
  Li+  1.0
  Sn4+  4.0
  P5+  5.0
  S2-  -2.0
  I-  -1.0
loop_
 _atom_site_type_symbol
 _atom_site_label
 _atom_site_symmetry_multiplicity
 _atom_site_fract_x
 _atom_site_fract_y
 _atom_site_fract_z
 _atom_site_occupancy
  Li+  Li0  1  0.48002113  0.90475037  0.74347531  1.0
  Li+  Li1  1  0.01800000  0.70360000  0.50900000  1.0
  Li+  Li2  1  0.01800000  0.10360000  0.00900000  1.0
  Li+  Li3  1  0.48200000  0.79640000  0.74100000  1.0
  Li+  Li4  1  0.48200000  0.39640000  0.74100000  1.0
  Li+  Li5  1  0.48200000  0.99640000  0.24100000  1.0
  Li+  Li6  1  0.01984340  0.29659652  0.73952613  1.0
  Li+  Li7  1  0.01800000  0.50360000  0.24100000  1.0
  Li+  Li8  1  0.01800000  0.10360000  0.24100000  1.0
  Li+  Li9  1  0.01800000  0.79640000  0.50900000  1.0
  Li+  Li10  1  0.01800000  0.59640000  0.50900000  1.0
  Li+  Li11  1  0.01858472  0.20145366  0.51102521  1.0
  Li+  Li12  1  0.01800000  0.99640000  0.00900000  1.0
  Li+  Li13  1  0.48200000  0.59640000  0.00900000  1.0
  Li+  Li14  1  0.40614000  0.88229200  0.74867000  1.0
  Li+  Li15  1  0.40614000  0.28229200  0.74867000  1.0
  Li+  Li16  1  0.40917631  0.28387404  0.25002615  1.0
  Li+  Li17  1  0.00266000  0.91877200  0.95573000  1.0
  Li+  Li18  1  0.00266000  0.71877200  0.95573000  1.0
  Li+  Li19  1  0.00266000  0.31877200  0.95573000  1.0
  Li+  Li20  1  0.58505446  0.60042030  0.25204233  1.0
  Li+  Li21  1  0.58854000  0.39946800  0.24867000  1.0
  Li+  Li22  1  0.58333246  0.71404709  0.75162285  1.0
  Li+  Li23  1  0.58854000  0.51877200  0.74867000  1.0
  Li+  Li24  1  0.58854000  0.71877200  0.24867000  1.0
  Li+  Li25  1  0.58854000  0.51877200  0.24867000  1.0
  Li+  Li26  1  0.58854000  0.11877200  0.24867000  1.0
  Li+  Li27  1  0.99888998  0.07982816  0.74763555  1.0
  Li+  Li28  1  0.00266000  0.88229200  0.24867000  1.0
  Li+  Li29  1  0.00266000  0.48229200  0.24867000  1.0
  Li+  Li30  1  0.00266000  0.28229200  0.24867000  1.0
  Li+  Li31  1  0.00357030  0.91295546  0.24971404  1.0
  Li+  Li32  1  0.00266000  0.51877200  0.24867000  1.0
  Li+  Li33  1  0.00199135  0.31756823  0.25221288  1.0
  Li+  Li34  1  0.99917796  0.88491983  0.54443296  1.0
  Li+  Li35  1  0.00160600  0.48507134  0.54806673  1.0
  Li+  Li36  1  0.00266000  0.88229200  0.04693000  1.0
  Li+  Li37  1  0.00266000  0.28229200  0.04693000  1.0
  Li+  Li38  1  0.00266000  0.79946800  0.54693000  1.0
  Li+  Li39  1  0.99963177  0.00175911  0.04879510  1.0
  Li+  Li40  1  0.00266000  0.79946800  0.04693000  1.0
  Li+  Li41  1  0.40614000  0.99946800  0.74867000  1.0
  Li+  Li42  1  0.40987806  0.60062223  0.74608474  1.0
  Li+  Li43  1  0.40614000  0.19946800  0.74867000  1.0
  Li+  Li44  1  0.40614000  0.59946800  0.24867000  1.0
  Li+  Li45  1  0.40614000  0.39946800  0.24867000  1.0
  Li+  Li46  1  0.00266000  0.99946800  0.45573000  1.0
  Li+  Li47  1  0.00266000  0.79946800  0.45573000  1.0
  Li+  Li48  1  0.00266000  0.39946800  0.45573000  1.0
  Li+  Li49  1  0.00266000  0.99946800  0.95573000  1.0
  Li+  Li50  1  0.00266000  0.59946800  0.95573000  1.0
  Li+  Li51  1  0.00266000  0.39946800  0.95573000  1.0
  Li+  Li52  1  0.58854000  0.39946800  0.54693000  1.0
  Li+  Li53  1  0.58854000  0.19946800  0.54693000  1.0
  Li+  Li54  1  0.58854000  0.79946800  0.04693000  1.0
  Li+  Li55  1  0.40614000  0.99946800  0.45573000  1.0
  Li+  Li56  1  0.40822654  0.79963334  0.45870974  1.0
  Li+  Li57  1  0.40614000  0.39946800  0.45573000  1.0
  Li+  Li58  1  0.40693159  0.19727609  0.45651306  1.0
  Li+  Li59  1  0.40913253  0.00055482  0.95468785  1.0
  Li+  Li60  1  0.40614000  0.19946800  0.95573000  1.0
  Sn4+  Sn61  1  0.50000000  0.90000000  0.00000000  1.0
  P5+  P62  1  0.50000000  0.90000000  0.50000000  1.0
  P5+  P63  1  0.50000000  0.70000000  0.50000000  1.0
  P5+  P64  1  0.50000000  0.50000000  0.50000000  1.0
  P5+  P65  1  0.50000000  0.30000000  0.50000000  1.0
  P5+  P66  1  0.50000000  0.10000000  0.50000000  1.0
  P5+  P67  1  0.49707636  0.70272575  0.99735041  1.0
  P5+  P68  1  0.50000000  0.50000000  0.00000000  1.0
  P5+  P69  1  0.50000000  0.30000000  0.00000000  1.0
  P5+  P70  1  0.49838042  0.10066205  0.00644765  1.0
  S2-  S71  1  0.25000000  0.95000000  0.62500000  1.0
  S2-  S72  1  0.25000000  0.75000000  0.62500000  1.0
  S2-  S73  1  0.25000000  0.55000000  0.62500000  1.0
  S2-  S74  1  0.25000000  0.35000000  0.62500000  1.0
  S2-  S75  1  0.24728950  0.15297018  0.62311498  1.0
  S2-  S76  1  0.25000000  0.95000000  0.12500000  1.0
  S2-  S77  1  0.25058902  0.75028031  0.12553336  1.0
  S2-  S78  1  0.25000000  0.55000000  0.12500000  1.0
  S2-  S79  1  0.25041970  0.34627434  0.12526360  1.0
  S2-  S80  1  0.25000000  0.15000000  0.12500000  1.0
  S2-  S81  1  0.61744000  0.87651200  0.67616000  1.0
  S2-  S82  1  0.61546122  0.67424681  0.67372805  1.0
  S2-  S83  1  0.61744000  0.47651200  0.67616000  1.0
  S2-  S84  1  0.61744000  0.27651200  0.67616000  1.0
  S2-  S85  1  0.61744000  0.07651200  0.67616000  1.0
  S2-  S86  1  0.61744000  0.87651200  0.17616000  1.0
  S2-  S87  1  0.61744000  0.67651200  0.17616000  1.0
  S2-  S88  1  0.61744000  0.47651200  0.17616000  1.0
  S2-  S89  1  0.61744000  0.27651200  0.17616000  1.0
  S2-  S90  1  0.61646358  0.07928468  0.17989708  1.0
  S2-  S91  1  0.61744000  0.87651200  0.44128000  1.0
  S2-  S92  1  0.61541089  0.67390877  0.44319392  1.0
  S2-  S93  1  0.61865940  0.47931042  0.44079535  1.0
  S2-  S94  1  0.61744000  0.27651200  0.44128000  1.0
  S2-  S95  1  0.61744000  0.07651200  0.44128000  1.0
  S2-  S96  1  0.61744000  0.87651200  0.94128000  1.0
  S2-  S97  1  0.61744000  0.67651200  0.94128000  1.0
  S2-  S98  1  0.61744000  0.47651200  0.94128000  1.0
  S2-  S99  1  0.61744000  0.27651200  0.94128000  1.0
  S2-  S100  1  0.61438291  0.07064618  0.93751330  1.0
  S2-  S101  1  0.61744000  0.97046400  0.44128000  1.0
  S2-  S102  1  0.61744000  0.77046400  0.44128000  1.0
  S2-  S103  1  0.61744000  0.57046400  0.44128000  1.0
  S2-  S104  1  0.61744000  0.37046400  0.44128000  1.0
  S2-  S105  1  0.61945549  0.17554267  0.44197107  1.0
  S2-  S106  1  0.61744000  0.97046400  0.94128000  1.0
  S2-  S107  1  0.61744000  0.77046400  0.94128000  1.0
  S2-  S108  1  0.61744000  0.57046400  0.94128000  1.0
  S2-  S109  1  0.61744000  0.37046400  0.94128000  1.0
  S2-  S110  1  0.62040621  0.17172357  0.93946052  1.0
  S2-  S111  1  0.14768000  0.87651200  0.44128000  1.0
  S2-  S112  1  0.14768000  0.67651200  0.44128000  1.0
  S2-  S113  1  0.14768000  0.47651200  0.44128000  1.0
  S2-  S114  1  0.14768000  0.27651200  0.44128000  1.0
  S2-  S115  1  0.14768000  0.07651200  0.44128000  1.0
  S2-  S116  1  0.14560898  0.87976650  0.94427681  1.0
  S2-  S117  1  0.14768000  0.67651200  0.94128000  1.0
  S2-  S118  1  0.14768000  0.47651200  0.94128000  1.0
  S2-  S119  1  0.14768000  0.27651200  0.94128000  1.0
  S2-  S120  1  0.14768000  0.07651200  0.94128000  1.0
  I-  I121  1  0.00000000  0.00000000  0.75000000  1.0
  I-  I122  1  0.99855860  0.79713877  0.74544691  1.0
  I-  I123  1  0.00000000  0.60000000  0.75000000  1.0
  I-  I124  1  0.99750532  0.39720631  0.74957488  1.0
  I-  I125  1  0.99754353  0.20652449  0.74612544  1.0
  I-  I126  1  0.00000000  0.00000000  0.25000000  1.0
  I-  I127  1  0.00000000  0.80000000  0.25000000  1.0
  I-  I128  1  0.00000000  0.60000000  0.25000000  1.0
  I-  I129  1  0.00000000  0.40000000  0.25000000  1.0
  I-  I130  1  0.00000000  0.20000000  0.25000000  1.0
