# generated using pymatgen
data_LiGe2(PO4)3
_symmetry_space_group_name_H-M   'P 1'
_cell_length_a   16.54118000
_cell_length_b   16.54118000
_cell_length_c   8.32688009
_cell_angle_alpha   60.22336968
_cell_angle_beta   60.22336968
_cell_angle_gamma   60.00000000
_symmetry_Int_Tables_number   1
_chemical_formula_structural   LiGe2(PO4)3
_chemical_formula_sum   'Li8 Ge16 P24 O96'
_cell_volume   1616.43537263
_cell_formula_units_Z   8
loop_
 _symmetry_equiv_pos_site_id
 _symmetry_equiv_pos_as_xyz
  1  'x, y, z'
loop_
 _atom_type_symbol
 _atom_type_oxidation_number
  Li+  1.0
  Ge4+  4.0
  P5+  5.0
  O2-  -2.0
loop_
 _atom_site_type_symbol
 _atom_site_label
 _atom_site_symmetry_multiplicity
 _atom_site_fract_x
 _atom_site_fract_y
 _atom_site_fract_z
 _atom_site_occupancy
  Li+  Li1  1  0.25000000  0.25000000  0.50000000  1.0
  Li+  Li1  1  0.25000000  0.75000000  0.50000000  1.0
  Li+  Li1  1  0.75000000  0.25000000  0.50000000  1.0
  Li+  Li1  1  0.75000000  0.75000000  0.50000000  1.0
  Li+  Li1  1  0.00000000  0.00000000  0.00000000  1.0
  Li+  Li1  1  0.00000000  0.50000000  0.00000000  1.0
  Li+  Li1  1  0.50000000  0.00000000  0.00000000  1.0
  Li+  Li1  1  0.50000000  0.50000000  0.00000000  1.0
  Ge4+  Ge1  1  0.17950000  0.17950000  0.92300000  1.0
  Ge4+  Ge1  1  0.17950000  0.67950000  0.92300000  1.0
  Ge4+  Ge1  1  0.67950000  0.17950000  0.92300000  1.0
  Ge4+  Ge1  1  0.67950000  0.67950000  0.92300000  1.0
  Ge4+  Ge1  1  0.42950000  0.42950000  0.42300000  1.0
  Ge4+  Ge1  1  0.42950000  0.92950000  0.42300000  1.0
  Ge4+  Ge1  1  0.92950000  0.42950000  0.42300000  1.0
  Ge4+  Ge1  1  0.92950000  0.92950000  0.42300000  1.0
  Ge4+  Ge1  1  0.32050000  0.32050000  0.07700000  1.0
  Ge4+  Ge1  1  0.32050000  0.82050000  0.07700000  1.0
  Ge4+  Ge1  1  0.82050000  0.32050000  0.07700000  1.0
  Ge4+  Ge1  1  0.82050000  0.82050000  0.07700000  1.0
  Ge4+  Ge1  1  0.07050000  0.07050000  0.57700000  1.0
  Ge4+  Ge1  1  0.07050000  0.57050000  0.57700000  1.0
  Ge4+  Ge1  1  0.57050000  0.07050000  0.57700000  1.0
  Ge4+  Ge1  1  0.57050000  0.57050000  0.57700000  1.0
  P5+  P1  1  0.12500000  0.48126500  0.25000000  1.0
  P5+  P1  1  0.12500000  0.98126500  0.25000000  1.0
  P5+  P1  1  0.62500000  0.48126500  0.25000000  1.0
  P5+  P1  1  0.62500000  0.98126500  0.25000000  1.0
  P5+  P1  1  0.26873500  0.12500000  0.25000000  1.0
  P5+  P1  1  0.26873500  0.62500000  0.25000000  1.0
  P5+  P1  1  0.76873500  0.12500000  0.25000000  1.0
  P5+  P1  1  0.76873500  0.62500000  0.25000000  1.0
  P5+  P1  1  0.48126500  0.26873500  0.25000000  1.0
  P5+  P1  1  0.48126500  0.76873500  0.25000000  1.0
  P5+  P1  1  0.98126500  0.26873500  0.25000000  1.0
  P5+  P1  1  0.98126500  0.76873500  0.25000000  1.0
  P5+  P1  1  0.23126500  0.37500000  0.75000000  1.0
  P5+  P1  1  0.23126500  0.87500000  0.75000000  1.0
  P5+  P1  1  0.73126500  0.37500000  0.75000000  1.0
  P5+  P1  1  0.73126500  0.87500000  0.75000000  1.0
  P5+  P1  1  0.01873500  0.23126500  0.75000000  1.0
  P5+  P1  1  0.01873500  0.73126500  0.75000000  1.0
  P5+  P1  1  0.51873500  0.23126500  0.75000000  1.0
  P5+  P1  1  0.51873500  0.73126500  0.75000000  1.0
  P5+  P1  1  0.37500000  0.01873500  0.75000000  1.0
  P5+  P1  1  0.37500000  0.51873500  0.75000000  1.0
  P5+  P1  1  0.87500000  0.01873500  0.75000000  1.0
  P5+  P1  1  0.87500000  0.51873500  0.75000000  1.0
  O2-  O1  1  0.14784500  0.06610000  0.06514000  1.0
  O2-  O1  1  0.14784500  0.56610000  0.06514000  1.0
  O2-  O1  1  0.64784500  0.06610000  0.06514000  1.0
  O2-  O1  1  0.64784500  0.56610000  0.06514000  1.0
  O2-  O1  1  0.25348500  0.14784500  0.06514000  1.0
  O2-  O1  1  0.25348500  0.64784500  0.06514000  1.0
  O2-  O1  1  0.75348500  0.14784500  0.06514000  1.0
  O2-  O1  1  0.75348500  0.64784500  0.06514000  1.0
  O2-  O1  1  0.06610000  0.25348500  0.06514000  1.0
  O2-  O1  1  0.06610000  0.75348500  0.06514000  1.0
  O2-  O1  1  0.56610000  0.25348500  0.06514000  1.0
  O2-  O1  1  0.56610000  0.75348500  0.06514000  1.0
  O2-  O1  1  0.31610000  0.39784500  0.56514000  1.0
  O2-  O1  1  0.31610000  0.89784500  0.56514000  1.0
  O2-  O1  1  0.81610000  0.39784500  0.56514000  1.0
  O2-  O1  1  0.81610000  0.89784500  0.56514000  1.0
  O2-  O1  1  0.00348500  0.31610000  0.56514000  1.0
  O2-  O1  1  0.00348500  0.81610000  0.56514000  1.0
  O2-  O1  1  0.50348500  0.31610000  0.56514000  1.0
  O2-  O1  1  0.50348500  0.81610000  0.56514000  1.0
  O2-  O1  1  0.39784500  0.00348500  0.56514000  1.0
  O2-  O1  1  0.39784500  0.50348500  0.56514000  1.0
  O2-  O1  1  0.89784500  0.00348500  0.56514000  1.0
  O2-  O1  1  0.89784500  0.50348500  0.56514000  1.0
  O2-  O1  1  0.35215500  0.43390000  0.93486000  1.0
  O2-  O1  1  0.35215500  0.93390000  0.93486000  1.0
  O2-  O1  1  0.85215500  0.43390000  0.93486000  1.0
  O2-  O1  1  0.85215500  0.93390000  0.93486000  1.0
  O2-  O1  1  0.24651500  0.35215500  0.93486000  1.0
  O2-  O1  1  0.24651500  0.85215500  0.93486000  1.0
  O2-  O1  1  0.74651500  0.35215500  0.93486000  1.0
  O2-  O1  1  0.74651500  0.85215500  0.93486000  1.0
  O2-  O1  1  0.43390000  0.24651500  0.93486000  1.0
  O2-  O1  1  0.43390000  0.74651500  0.93486000  1.0
  O2-  O1  1  0.93390000  0.24651500  0.93486000  1.0
  O2-  O1  1  0.93390000  0.74651500  0.93486000  1.0
  O2-  O1  1  0.18390000  0.10215500  0.43486000  1.0
  O2-  O1  1  0.18390000  0.60215500  0.43486000  1.0
  O2-  O1  1  0.68390000  0.10215500  0.43486000  1.0
  O2-  O1  1  0.68390000  0.60215500  0.43486000  1.0
  O2-  O1  1  0.49651500  0.18390000  0.43486000  1.0
  O2-  O1  1  0.49651500  0.68390000  0.43486000  1.0
  O2-  O1  1  0.99651500  0.18390000  0.43486000  1.0
  O2-  O1  1  0.99651500  0.68390000  0.43486000  1.0
  O2-  O1  1  0.10215500  0.49651500  0.43486000  1.0
  O2-  O1  1  0.10215500  0.99651500  0.43486000  1.0
  O2-  O1  1  0.60215500  0.49651500  0.43486000  1.0
  O2-  O1  1  0.60215500  0.99651500  0.43486000  1.0
  O2-  O2  1  0.28821500  0.11597500  0.74840000  1.0
  O2-  O2  1  0.28821500  0.61597500  0.74840000  1.0
  O2-  O2  1  0.78821500  0.11597500  0.74840000  1.0
  O2-  O2  1  0.78821500  0.61597500  0.74840000  1.0
  O2-  O2  1  0.22161000  0.28821500  0.74840000  1.0
  O2-  O2  1  0.22161000  0.78821500  0.74840000  1.0
  O2-  O2  1  0.72161000  0.28821500  0.74840000  1.0
  O2-  O2  1  0.72161000  0.78821500  0.74840000  1.0
  O2-  O2  1  0.11597500  0.22161000  0.74840000  1.0
  O2-  O2  1  0.11597500  0.72161000  0.74840000  1.0
  O2-  O2  1  0.61597500  0.22161000  0.74840000  1.0
  O2-  O2  1  0.61597500  0.72161000  0.74840000  1.0
  O2-  O2  1  0.36597500  0.03821500  0.24840000  1.0
  O2-  O2  1  0.36597500  0.53821500  0.24840000  1.0
  O2-  O2  1  0.86597500  0.03821500  0.24840000  1.0
  O2-  O2  1  0.86597500  0.53821500  0.24840000  1.0
  O2-  O2  1  0.47161000  0.36597500  0.24840000  1.0
  O2-  O2  1  0.47161000  0.86597500  0.24840000  1.0
  O2-  O2  1  0.97161000  0.36597500  0.24840000  1.0
  O2-  O2  1  0.97161000  0.86597500  0.24840000  1.0
  O2-  O2  1  0.03821500  0.47161000  0.24840000  1.0
  O2-  O2  1  0.03821500  0.97161000  0.24840000  1.0
  O2-  O2  1  0.53821500  0.47161000  0.24840000  1.0
  O2-  O2  1  0.53821500  0.97161000  0.24840000  1.0
  O2-  O2  1  0.21178500  0.38402500  0.25160000  1.0
  O2-  O2  1  0.21178500  0.88402500  0.25160000  1.0
  O2-  O2  1  0.71178500  0.38402500  0.25160000  1.0
  O2-  O2  1  0.71178500  0.88402500  0.25160000  1.0
  O2-  O2  1  0.27839000  0.21178500  0.25160000  1.0
  O2-  O2  1  0.27839000  0.71178500  0.25160000  1.0
  O2-  O2  1  0.77839000  0.21178500  0.25160000  1.0
  O2-  O2  1  0.77839000  0.71178500  0.25160000  1.0
  O2-  O2  1  0.38402500  0.27839000  0.25160000  1.0
  O2-  O2  1  0.38402500  0.77839000  0.25160000  1.0
  O2-  O2  1  0.88402500  0.27839000  0.25160000  1.0
  O2-  O2  1  0.88402500  0.77839000  0.25160000  1.0
  O2-  O2  1  0.13402500  0.46178500  0.75160000  1.0
  O2-  O2  1  0.13402500  0.96178500  0.75160000  1.0
  O2-  O2  1  0.63402500  0.46178500  0.75160000  1.0
  O2-  O2  1  0.63402500  0.96178500  0.75160000  1.0
  O2-  O2  1  0.02839000  0.13402500  0.75160000  1.0
  O2-  O2  1  0.02839000  0.63402500  0.75160000  1.0
  O2-  O2  1  0.52839000  0.13402500  0.75160000  1.0
  O2-  O2  1  0.52839000  0.63402500  0.75160000  1.0
  O2-  O2  1  0.46178500  0.02839000  0.75160000  1.0
  O2-  O2  1  0.46178500  0.52839000  0.75160000  1.0
  O2-  O2  1  0.96178500  0.02839000  0.75160000  1.0
  O2-  O2  1  0.96178500  0.52839000  0.75160000  1.0
