# generated using pymatgen
data_Li4SnSe4
_symmetry_space_group_name_H-M   'P 1'
_cell_length_a   13.25580000
_cell_length_b   14.98259000
_cell_length_c   16.51816000
_cell_angle_alpha   90.00000000
_cell_angle_beta   90.00000000
_cell_angle_gamma   90.00000000
_symmetry_Int_Tables_number   1
_chemical_formula_structural   Li4SnSe4
_chemical_formula_sum   'Li64 Sn16 Se64'
_cell_volume   3280.60926151
_cell_formula_units_Z   16
loop_
 _symmetry_equiv_pos_site_id
 _symmetry_equiv_pos_as_xyz
  1  'x, y, z'
loop_
 _atom_type_symbol
 _atom_type_oxidation_number
  Li+  1.0
  Sn4+  4.0
  Se2-  -2.0
loop_
 _atom_site_type_symbol
 _atom_site_label
 _atom_site_symmetry_multiplicity
 _atom_site_fract_x
 _atom_site_fract_y
 _atom_site_fract_z
 _atom_site_occupancy
  Li+  Li0  1  0.30929697  0.41124061  0.62386575  1.0
  Li+  Li1  1  0.31000000  0.41180000  0.12500000  1.0
  Li+  Li2  1  0.81000000  0.41180000  0.62500000  1.0
  Li+  Li3  1  0.81058737  0.41384092  0.12617399  1.0
  Li+  Li4  1  0.19000000  0.58820000  0.37500000  1.0
  Li+  Li5  1  0.19368104  0.58882922  0.87563337  1.0
  Li+  Li6  1  0.69000000  0.58820000  0.37500000  1.0
  Li+  Li7  1  0.69000000  0.58820000  0.87500000  1.0
  Li+  Li8  1  0.06000000  0.08820000  0.37500000  1.0
  Li+  Li9  1  0.06266429  0.08794874  0.87345524  1.0
  Li+  Li10  1  0.56000000  0.08820000  0.37500000  1.0
  Li+  Li11  1  0.56000000  0.08820000  0.87500000  1.0
  Li+  Li12  1  0.44000000  0.91180000  0.62500000  1.0
  Li+  Li13  1  0.44000000  0.91180000  0.12500000  1.0
  Li+  Li14  1  0.94000000  0.91180000  0.62500000  1.0
  Li+  Li15  1  0.94000000  0.91180000  0.12500000  1.0
  Li+  Li16  1  0.34145000  0.17560000  0.74800000  1.0
  Li+  Li17  1  0.34145000  0.17560000  0.24800000  1.0
  Li+  Li18  1  0.84145000  0.17560000  0.74800000  1.0
  Li+  Li19  1  0.84145000  0.17560000  0.24800000  1.0
  Li+  Li20  1  0.15855000  0.82440000  0.49800000  1.0
  Li+  Li21  1  0.15439865  0.82751995  0.99622896  1.0
  Li+  Li22  1  0.65956959  0.82185548  0.49690856  1.0
  Li+  Li23  1  0.65855000  0.82440000  0.99800000  1.0
  Li+  Li24  1  0.09145000  0.32440000  0.25200000  1.0
  Li+  Li25  1  0.09145000  0.32440000  0.75200000  1.0
  Li+  Li26  1  0.59145000  0.32440000  0.25200000  1.0
  Li+  Li27  1  0.59145000  0.32440000  0.75200000  1.0
  Li+  Li28  1  0.09145000  0.32440000  0.49800000  1.0
  Li+  Li29  1  0.09145000  0.32440000  0.99800000  1.0
  Li+  Li30  1  0.59145000  0.32440000  0.49800000  1.0
  Li+  Li31  1  0.59145000  0.32440000  0.99800000  1.0
  Li+  Li32  1  0.34145000  0.17560000  0.50200000  1.0
  Li+  Li33  1  0.34145000  0.17560000  0.00200000  1.0
  Li+  Li34  1  0.84145000  0.17560000  0.50200000  1.0
  Li+  Li35  1  0.83934146  0.17660293  0.00287843  1.0
  Li+  Li36  1  0.15855000  0.82440000  0.25200000  1.0
  Li+  Li37  1  0.15855000  0.82440000  0.75200000  1.0
  Li+  Li38  1  0.65855000  0.82440000  0.25200000  1.0
  Li+  Li39  1  0.65855000  0.82440000  0.75200000  1.0
  Li+  Li40  1  0.41164547  0.67819774  0.50017680  1.0
  Li+  Li41  1  0.40855000  0.67560000  0.00200000  1.0
  Li+  Li42  1  0.90855000  0.67560000  0.50200000  1.0
  Li+  Li43  1  0.90740917  0.67399715  0.99950373  1.0
  Li+  Li44  1  0.40855000  0.67560000  0.74800000  1.0
  Li+  Li45  1  0.40335943  0.67447988  0.24924490  1.0
  Li+  Li46  1  0.90840316  0.67360879  0.74940358  1.0
  Li+  Li47  1  0.90966703  0.67302419  0.24994241  1.0
  Li+  Li48  1  0.76085000  0.00070000  0.74395000  1.0
  Li+  Li49  1  0.76085000  0.00070000  0.24395000  1.0
  Li+  Li50  1  0.23915000  0.99930000  0.49395000  1.0
  Li+  Li51  1  0.23915000  0.99930000  0.99395000  1.0
  Li+  Li52  1  0.73915000  0.99930000  0.49395000  1.0
  Li+  Li53  1  0.73915000  0.99930000  0.99395000  1.0
  Li+  Li54  1  0.01085000  0.49930000  0.25605000  1.0
  Li+  Li55  1  0.01085000  0.49930000  0.75605000  1.0
  Li+  Li56  1  0.51085000  0.49930000  0.25605000  1.0
  Li+  Li57  1  0.51058498  0.49685649  0.75440317  1.0
  Li+  Li58  1  0.23980426  0.99857433  0.25591815  1.0
  Li+  Li59  1  0.23915000  0.99930000  0.75605000  1.0
  Li+  Li60  1  0.48915000  0.50070000  0.50605000  1.0
  Li+  Li61  1  0.48859199  0.50036619  0.00303671  1.0
  Li+  Li62  1  0.98915000  0.50070000  0.50605000  1.0
  Li+  Li63  1  0.98915000  0.50070000  0.00605000  1.0
  Sn4+  Sn64  1  0.32145000  0.40755000  0.37500000  1.0
  Sn4+  Sn65  1  0.32145000  0.40755000  0.87500000  1.0
  Sn4+  Sn66  1  0.82145000  0.40755000  0.37500000  1.0
  Sn4+  Sn67  1  0.82517218  0.40632420  0.87450673  1.0
  Sn4+  Sn68  1  0.17963743  0.58852081  0.62066493  1.0
  Sn4+  Sn69  1  0.17855000  0.59245000  0.12500000  1.0
  Sn4+  Sn70  1  0.67855000  0.59245000  0.62500000  1.0
  Sn4+  Sn71  1  0.67855000  0.59245000  0.12500000  1.0
  Sn4+  Sn72  1  0.07145000  0.09245000  0.62500000  1.0
  Sn4+  Sn73  1  0.07145000  0.09245000  0.12500000  1.0
  Sn4+  Sn74  1  0.57145000  0.09245000  0.62500000  1.0
  Sn4+  Sn75  1  0.57188633  0.08807764  0.12555423  1.0
  Sn4+  Sn76  1  0.42611351  0.90783917  0.37301191  1.0
  Sn4+  Sn77  1  0.43175454  0.90585291  0.87373317  1.0
  Sn4+  Sn78  1  0.92855000  0.90755000  0.37500000  1.0
  Sn4+  Sn79  1  0.92855000  0.90755000  0.87500000  1.0
  Se2-  Se80  1  0.39209460  0.34165975  0.75436955  1.0
  Se2-  Se81  1  0.39169000  0.33873000  0.24915500  1.0
  Se2-  Se82  1  0.89169000  0.33873000  0.74915500  1.0
  Se2-  Se83  1  0.89169000  0.33873000  0.24915500  1.0
  Se2-  Se84  1  0.10831000  0.66127000  0.49915500  1.0
  Se2-  Se85  1  0.11028080  0.66478148  0.99319561  1.0
  Se2-  Se86  1  0.60831000  0.66127000  0.49915500  1.0
  Se2-  Se87  1  0.61050332  0.65995740  0.99717248  1.0
  Se2-  Se88  1  0.14169000  0.16127000  0.25084500  1.0
  Se2-  Se89  1  0.14169000  0.16127000  0.75084500  1.0
  Se2-  Se90  1  0.64169000  0.16127000  0.25084500  1.0
  Se2-  Se91  1  0.64169000  0.16127000  0.75084500  1.0
  Se2-  Se92  1  0.14169000  0.16127000  0.49915500  1.0
  Se2-  Se93  1  0.14169000  0.16127000  0.99915500  1.0
  Se2-  Se94  1  0.63952091  0.16585886  0.50331033  1.0
  Se2-  Se95  1  0.64169000  0.16127000  0.99915500  1.0
  Se2-  Se96  1  0.39189042  0.34162752  0.49779932  1.0
  Se2-  Se97  1  0.39169000  0.33873000  0.00084500  1.0
  Se2-  Se98  1  0.89169000  0.33873000  0.50084500  1.0
  Se2-  Se99  1  0.89169000  0.33873000  0.00084500  1.0
  Se2-  Se100  1  0.10831000  0.66127000  0.25084500  1.0
  Se2-  Se101  1  0.10831000  0.66127000  0.75084500  1.0
  Se2-  Se102  1  0.60808511  0.66394031  0.25168040  1.0
  Se2-  Se103  1  0.60831000  0.66127000  0.75084500  1.0
  Se2-  Se104  1  0.35831000  0.83873000  0.50084500  1.0
  Se2-  Se105  1  0.35831000  0.83873000  0.00084500  1.0
  Se2-  Se106  1  0.85831000  0.83873000  0.50084500  1.0
  Se2-  Se107  1  0.85831000  0.83873000  0.00084500  1.0
  Se2-  Se108  1  0.35831000  0.83873000  0.74915500  1.0
  Se2-  Se109  1  0.35831000  0.83873000  0.24915500  1.0
  Se2-  Se110  1  0.85831000  0.83873000  0.74915500  1.0
  Se2-  Se111  1  0.85831000  0.83873000  0.24915500  1.0
  Se2-  Se112  1  0.38260000  0.08296000  0.62500000  1.0
  Se2-  Se113  1  0.38260000  0.08296000  0.12500000  1.0
  Se2-  Se114  1  0.88260000  0.08296000  0.62500000  1.0
  Se2-  Se115  1  0.88260000  0.08296000  0.12500000  1.0
  Se2-  Se116  1  0.11740000  0.91704000  0.37500000  1.0
  Se2-  Se117  1  0.11740000  0.91704000  0.87500000  1.0
  Se2-  Se118  1  0.61706802  0.92060614  0.37515682  1.0
  Se2-  Se119  1  0.61628090  0.91666926  0.88178919  1.0
  Se2-  Se120  1  0.13260000  0.41704000  0.37500000  1.0
  Se2-  Se121  1  0.13020569  0.41879304  0.87235143  1.0
  Se2-  Se122  1  0.63260000  0.41704000  0.37500000  1.0
  Se2-  Se123  1  0.63260000  0.41704000  0.87500000  1.0
  Se2-  Se124  1  0.36740000  0.58296000  0.62500000  1.0
  Se2-  Se125  1  0.37264889  0.58483258  0.12880914  1.0
  Se2-  Se126  1  0.86819970  0.58454986  0.62258055  1.0
  Se2-  Se127  1  0.86810852  0.58490235  0.12548429  1.0
  Se2-  Se128  1  0.36450000  0.06756000  0.37500000  1.0
  Se2-  Se129  1  0.36146411  0.06935959  0.87166627  1.0
  Se2-  Se130  1  0.86450000  0.06756000  0.37500000  1.0
  Se2-  Se131  1  0.86446016  0.06701470  0.87956772  1.0
  Se2-  Se132  1  0.13550000  0.93244000  0.62500000  1.0
  Se2-  Se133  1  0.13550000  0.93244000  0.12500000  1.0
  Se2-  Se134  1  0.63550000  0.93244000  0.62500000  1.0
  Se2-  Se135  1  0.63757787  0.93911808  0.12410330  1.0
  Se2-  Se136  1  0.11450000  0.43244000  0.62500000  1.0
  Se2-  Se137  1  0.11450000  0.43244000  0.12500000  1.0
  Se2-  Se138  1  0.61450000  0.43244000  0.62500000  1.0
  Se2-  Se139  1  0.61450000  0.43244000  0.12500000  1.0
  Se2-  Se140  1  0.38550000  0.56756000  0.37500000  1.0
  Se2-  Se141  1  0.38550000  0.56756000  0.87500000  1.0
  Se2-  Se142  1  0.88745260  0.56772137  0.37773387  1.0
  Se2-  Se143  1  0.88550000  0.56756000  0.87500000  1.0
