# generated using pymatgen
data_Li4SnSe4
_symmetry_space_group_name_H-M   'P 1'
_cell_length_a   16.37477201
_cell_length_b   13.14073134
_cell_length_c   14.85253172
_cell_angle_alpha   90.00000000
_cell_angle_beta   90.00000000
_cell_angle_gamma   90.00000000
_symmetry_Int_Tables_number   1
_chemical_formula_structural   Li4SnSe4
_chemical_formula_sum   'Li64 Sn16 Se64'
_cell_volume   3195.91549069
_cell_formula_units_Z   16
loop_
 _symmetry_equiv_pos_site_id
 _symmetry_equiv_pos_as_xyz
  1  'x, y, z'
loop_
 _atom_type_symbol
 _atom_type_oxidation_number
  Li+  1.0
  Sn4+  4.0
  Se2-  -2.0
loop_
 _atom_site_type_symbol
 _atom_site_label
 _atom_site_symmetry_multiplicity
 _atom_site_fract_x
 _atom_site_fract_y
 _atom_site_fract_z
 _atom_site_occupancy
  Li+  Li0  1  0.87500000  0.35666667  0.58820000  1.0
  Li+  Li1  1  0.37500000  0.35666667  0.58820000  1.0
  Li+  Li2  1  0.87500000  0.85666667  0.58820000  1.0
  Li+  Li3  1  0.37500000  0.85666667  0.58820000  1.0
  Li+  Li4  1  0.62500000  0.47666667  0.41180000  1.0
  Li+  Li5  1  0.12500000  0.47666667  0.41180000  1.0
  Li+  Li6  1  0.62500000  0.97666667  0.41180000  1.0
  Li+  Li7  1  0.12500000  0.97666667  0.41180000  1.0
  Li+  Li8  1  0.62500000  0.60666667  0.91180000  1.0
  Li+  Li9  1  0.12500000  0.60666667  0.91180000  1.0
  Li+  Li10  1  0.62500000  0.10666667  0.91180000  1.0
  Li+  Li11  1  0.12500000  0.10666667  0.91180000  1.0
  Li+  Li12  1  0.87500000  0.22666667  0.08820000  1.0
  Li+  Li13  1  0.37500000  0.22666667  0.08820000  1.0
  Li+  Li14  1  0.87500000  0.72666667  0.08820000  1.0
  Li+  Li15  1  0.37500000  0.72666667  0.08820000  1.0
  Li+  Li16  1  0.99800000  0.32521667  0.82440000  1.0
  Li+  Li17  1  0.49800000  0.32521667  0.82440000  1.0
  Li+  Li18  1  0.99800000  0.82521667  0.82440000  1.0
  Li+  Li19  1  0.49800000  0.82521667  0.82440000  1.0
  Li+  Li20  1  0.74800000  0.50811667  0.17560000  1.0
  Li+  Li21  1  0.24800000  0.50811667  0.17560000  1.0
  Li+  Li22  1  0.74800000  0.00811667  0.17560000  1.0
  Li+  Li23  1  0.24800000  0.00811667  0.17560000  1.0
  Li+  Li24  1  0.50200000  0.57521667  0.67560000  1.0
  Li+  Li25  1  0.00200000  0.57521667  0.67560000  1.0
  Li+  Li26  1  0.50200000  0.07521667  0.67560000  1.0
  Li+  Li27  1  0.00200000  0.07521667  0.67560000  1.0
  Li+  Li28  1  0.74800000  0.57521667  0.67560000  1.0
  Li+  Li29  1  0.24800000  0.57521667  0.67560000  1.0
  Li+  Li30  1  0.74800000  0.07521667  0.67560000  1.0
  Li+  Li31  1  0.24800000  0.07521667  0.67560000  1.0
  Li+  Li32  1  0.75200000  0.32521667  0.82440000  1.0
  Li+  Li33  1  0.25200000  0.32521667  0.82440000  1.0
  Li+  Li34  1  0.75200000  0.82521667  0.82440000  1.0
  Li+  Li35  1  0.25200000  0.82521667  0.82440000  1.0
  Li+  Li36  1  0.50200000  0.50811667  0.17560000  1.0
  Li+  Li37  1  0.00200000  0.50811667  0.17560000  1.0
  Li+  Li38  1  0.50200000  0.00811667  0.17560000  1.0
  Li+  Li39  1  0.00200000  0.00811667  0.17560000  1.0
  Li+  Li40  1  0.75200000  0.25811667  0.32440000  1.0
  Li+  Li41  1  0.25200000  0.25811667  0.32440000  1.0
  Li+  Li42  1  0.75200000  0.75811667  0.32440000  1.0
  Li+  Li43  1  0.25200000  0.75811667  0.32440000  1.0
  Li+  Li44  1  0.99800000  0.25811667  0.32440000  1.0
  Li+  Li45  1  0.49800000  0.25811667  0.32440000  1.0
  Li+  Li46  1  0.99800000  0.75811667  0.32440000  1.0
  Li+  Li47  1  0.49800000  0.75811667  0.32440000  1.0
  Li+  Li48  1  0.99395000  0.90581667  0.99930000  1.0
  Li+  Li49  1  0.49395000  0.90581667  0.99930000  1.0
  Li+  Li50  1  0.74395000  0.42751667  0.00070000  1.0
  Li+  Li51  1  0.24395000  0.42751667  0.00070000  1.0
  Li+  Li52  1  0.74395000  0.92751667  0.00070000  1.0
  Li+  Li53  1  0.24395000  0.92751667  0.00070000  1.0
  Li+  Li54  1  0.50605000  0.65581667  0.50070000  1.0
  Li+  Li55  1  0.00605000  0.65581667  0.50070000  1.0
  Li+  Li56  1  0.50605000  0.15581667  0.50070000  1.0
  Li+  Li57  1  0.00605000  0.15581667  0.50070000  1.0
  Li+  Li58  1  0.50605000  0.42751667  0.00070000  1.0
  Li+  Li59  1  0.00605000  0.42751667  0.00070000  1.0
  Li+  Li60  1  0.75605000  0.17751667  0.49930000  1.0
  Li+  Li61  1  0.25605000  0.17751667  0.49930000  1.0
  Li+  Li62  1  0.75605000  0.67751667  0.49930000  1.0
  Li+  Li63  1  0.25605000  0.67751667  0.49930000  1.0
  Sn4+  Sn64  1  0.62500000  0.34521667  0.59245000  1.0
  Sn4+  Sn65  1  0.12500000  0.34521667  0.59245000  1.0
  Sn4+  Sn66  1  0.62500000  0.84521667  0.59245000  1.0
  Sn4+  Sn67  1  0.12500000  0.84521667  0.59245000  1.0
  Sn4+  Sn68  1  0.87500000  0.48811667  0.40755000  1.0
  Sn4+  Sn69  1  0.37500000  0.48811667  0.40755000  1.0
  Sn4+  Sn70  1  0.87500000  0.98811667  0.40755000  1.0
  Sn4+  Sn71  1  0.37500000  0.98811667  0.40755000  1.0
  Sn4+  Sn72  1  0.87500000  0.59521667  0.90755000  1.0
  Sn4+  Sn73  1  0.37500000  0.59521667  0.90755000  1.0
  Sn4+  Sn74  1  0.87500000  0.09521667  0.90755000  1.0
  Sn4+  Sn75  1  0.37500000  0.09521667  0.90755000  1.0
  Sn4+  Sn76  1  0.62500000  0.23811667  0.09245000  1.0
  Sn4+  Sn77  1  0.12500000  0.23811667  0.09245000  1.0
  Sn4+  Sn78  1  0.62500000  0.73811667  0.09245000  1.0
  Sn4+  Sn79  1  0.12500000  0.73811667  0.09245000  1.0
  Se2-  Se80  1  0.99915500  0.27497667  0.66127000  1.0
  Se2-  Se81  1  0.49915500  0.27497667  0.66127000  1.0
  Se2-  Se82  1  0.99915500  0.77497667  0.66127000  1.0
  Se2-  Se83  1  0.49915500  0.77497667  0.66127000  1.0
  Se2-  Se84  1  0.74915500  0.55835667  0.33873000  1.0
  Se2-  Se85  1  0.24915500  0.55835667  0.33873000  1.0
  Se2-  Se86  1  0.74915500  0.05835667  0.33873000  1.0
  Se2-  Se87  1  0.24915500  0.05835667  0.33873000  1.0
  Se2-  Se88  1  0.50084500  0.52497667  0.83873000  1.0
  Se2-  Se89  1  0.00084500  0.52497667  0.83873000  1.0
  Se2-  Se90  1  0.50084500  0.02497667  0.83873000  1.0
  Se2-  Se91  1  0.00084500  0.02497667  0.83873000  1.0
  Se2-  Se92  1  0.74915500  0.52497667  0.83873000  1.0
  Se2-  Se93  1  0.24915500  0.52497667  0.83873000  1.0
  Se2-  Se94  1  0.74915500  0.02497667  0.83873000  1.0
  Se2-  Se95  1  0.24915500  0.02497667  0.83873000  1.0
  Se2-  Se96  1  0.75084500  0.27497667  0.66127000  1.0
  Se2-  Se97  1  0.25084500  0.27497667  0.66127000  1.0
  Se2-  Se98  1  0.75084500  0.77497667  0.66127000  1.0
  Se2-  Se99  1  0.25084500  0.77497667  0.66127000  1.0
  Se2-  Se100  1  0.50084500  0.55835667  0.33873000  1.0
  Se2-  Se101  1  0.00084500  0.55835667  0.33873000  1.0
  Se2-  Se102  1  0.50084500  0.05835667  0.33873000  1.0
  Se2-  Se103  1  0.00084500  0.05835667  0.33873000  1.0
  Se2-  Se104  1  0.75084500  0.30835667  0.16127000  1.0
  Se2-  Se105  1  0.25084500  0.30835667  0.16127000  1.0
  Se2-  Se106  1  0.75084500  0.80835667  0.16127000  1.0
  Se2-  Se107  1  0.25084500  0.80835667  0.16127000  1.0
  Se2-  Se108  1  0.99915500  0.30835667  0.16127000  1.0
  Se2-  Se109  1  0.49915500  0.30835667  0.16127000  1.0
  Se2-  Se110  1  0.99915500  0.80835667  0.16127000  1.0
  Se2-  Se111  1  0.49915500  0.80835667  0.16127000  1.0
  Se2-  Se112  1  0.87500000  0.28406667  0.91704000  1.0
  Se2-  Se113  1  0.37500000  0.28406667  0.91704000  1.0
  Se2-  Se114  1  0.87500000  0.78406667  0.91704000  1.0
  Se2-  Se115  1  0.37500000  0.78406667  0.91704000  1.0
  Se2-  Se116  1  0.62500000  0.54926667  0.08296000  1.0
  Se2-  Se117  1  0.12500000  0.54926667  0.08296000  1.0
  Se2-  Se118  1  0.62500000  0.04926667  0.08296000  1.0
  Se2-  Se119  1  0.12500000  0.04926667  0.08296000  1.0
  Se2-  Se120  1  0.62500000  0.53406667  0.58296000  1.0
  Se2-  Se121  1  0.12500000  0.53406667  0.58296000  1.0
  Se2-  Se122  1  0.62500000  0.03406667  0.58296000  1.0
  Se2-  Se123  1  0.12500000  0.03406667  0.58296000  1.0
  Se2-  Se124  1  0.87500000  0.29926667  0.41704000  1.0
  Se2-  Se125  1  0.37500000  0.29926667  0.41704000  1.0
  Se2-  Se126  1  0.87500000  0.79926667  0.41704000  1.0
  Se2-  Se127  1  0.37500000  0.79926667  0.41704000  1.0
  Se2-  Se128  1  0.62500000  0.30216667  0.93244000  1.0
  Se2-  Se129  1  0.12500000  0.30216667  0.93244000  1.0
  Se2-  Se130  1  0.62500000  0.80216667  0.93244000  1.0
  Se2-  Se131  1  0.12500000  0.80216667  0.93244000  1.0
  Se2-  Se132  1  0.87500000  0.53116667  0.06756000  1.0
  Se2-  Se133  1  0.37500000  0.53116667  0.06756000  1.0
  Se2-  Se134  1  0.87500000  0.03116667  0.06756000  1.0
  Se2-  Se135  1  0.37500000  0.03116667  0.06756000  1.0
  Se2-  Se136  1  0.87500000  0.55216667  0.56756000  1.0
  Se2-  Se137  1  0.37500000  0.55216667  0.56756000  1.0
  Se2-  Se138  1  0.87500000  0.05216667  0.56756000  1.0
  Se2-  Se139  1  0.37500000  0.05216667  0.56756000  1.0
  Se2-  Se140  1  0.62500000  0.28116667  0.43244000  1.0
  Se2-  Se141  1  0.12500000  0.28116667  0.43244000  1.0
  Se2-  Se142  1  0.62500000  0.78116667  0.43244000  1.0
  Se2-  Se143  1  0.12500000  0.78116667  0.43244000  1.0
