# generated using pymatgen
data_Li4SnSe4
_symmetry_space_group_name_H-M   'P 1'
_cell_length_a   13.25580000
_cell_length_b   16.51816000
_cell_length_c   14.98259000
_cell_angle_alpha   90.00000000
_cell_angle_beta   90.00000000
_cell_angle_gamma   90.00000000
_symmetry_Int_Tables_number   1
_chemical_formula_structural   Li4SnSe4
_chemical_formula_sum   'Li64 Sn16 Se64'
_cell_volume   3280.60926151
_cell_formula_units_Z   16
loop_
 _symmetry_equiv_pos_site_id
 _symmetry_equiv_pos_as_xyz
  1  'x, y, z'
loop_
 _atom_type_symbol
 _atom_type_oxidation_number
  Li+  1.0
  Sn4+  4.0
  Se2-  -2.0
loop_
 _atom_site_type_symbol
 _atom_site_label
 _atom_site_symmetry_multiplicity
 _atom_site_fract_x
 _atom_site_fract_y
 _atom_site_fract_z
 _atom_site_occupancy
  Li+  Li1  1  0.31000000  0.12500000  0.58820000  1.0
  Li+  Li1  1  0.31000000  0.62500000  0.58820000  1.0
  Li+  Li1  1  0.81000000  0.12500000  0.58820000  1.0
  Li+  Li1  1  0.81000000  0.62500000  0.58820000  1.0
  Li+  Li1  1  0.19000000  0.37500000  0.41180000  1.0
  Li+  Li1  1  0.19000000  0.87500000  0.41180000  1.0
  Li+  Li1  1  0.69000000  0.37500000  0.41180000  1.0
  Li+  Li1  1  0.69000000  0.87500000  0.41180000  1.0
  Li+  Li1  1  0.06000000  0.37500000  0.91180000  1.0
  Li+  Li1  1  0.06000000  0.87500000  0.91180000  1.0
  Li+  Li1  1  0.56000000  0.37500000  0.91180000  1.0
  Li+  Li1  1  0.56000000  0.87500000  0.91180000  1.0
  Li+  Li1  1  0.44000000  0.12500000  0.08820000  1.0
  Li+  Li1  1  0.44000000  0.62500000  0.08820000  1.0
  Li+  Li1  1  0.94000000  0.12500000  0.08820000  1.0
  Li+  Li1  1  0.94000000  0.62500000  0.08820000  1.0
  Li+  Li2  1  0.34145000  0.00200000  0.82440000  1.0
  Li+  Li2  1  0.34145000  0.50200000  0.82440000  1.0
  Li+  Li2  1  0.84145000  0.00200000  0.82440000  1.0
  Li+  Li2  1  0.84145000  0.50200000  0.82440000  1.0
  Li+  Li2  1  0.15855000  0.25200000  0.17560000  1.0
  Li+  Li2  1  0.15855000  0.75200000  0.17560000  1.0
  Li+  Li2  1  0.65855000  0.25200000  0.17560000  1.0
  Li+  Li2  1  0.65855000  0.75200000  0.17560000  1.0
  Li+  Li2  1  0.09145000  0.49800000  0.67560000  1.0
  Li+  Li2  1  0.09145000  0.99800000  0.67560000  1.0
  Li+  Li2  1  0.59145000  0.49800000  0.67560000  1.0
  Li+  Li2  1  0.59145000  0.99800000  0.67560000  1.0
  Li+  Li2  1  0.09145000  0.25200000  0.67560000  1.0
  Li+  Li2  1  0.09145000  0.75200000  0.67560000  1.0
  Li+  Li2  1  0.59145000  0.25200000  0.67560000  1.0
  Li+  Li2  1  0.59145000  0.75200000  0.67560000  1.0
  Li+  Li2  1  0.34145000  0.24800000  0.82440000  1.0
  Li+  Li2  1  0.34145000  0.74800000  0.82440000  1.0
  Li+  Li2  1  0.84145000  0.24800000  0.82440000  1.0
  Li+  Li2  1  0.84145000  0.74800000  0.82440000  1.0
  Li+  Li2  1  0.15855000  0.49800000  0.17560000  1.0
  Li+  Li2  1  0.15855000  0.99800000  0.17560000  1.0
  Li+  Li2  1  0.65855000  0.49800000  0.17560000  1.0
  Li+  Li2  1  0.65855000  0.99800000  0.17560000  1.0
  Li+  Li2  1  0.40855000  0.24800000  0.32440000  1.0
  Li+  Li2  1  0.40855000  0.74800000  0.32440000  1.0
  Li+  Li2  1  0.90855000  0.24800000  0.32440000  1.0
  Li+  Li2  1  0.90855000  0.74800000  0.32440000  1.0
  Li+  Li2  1  0.40855000  0.00200000  0.32440000  1.0
  Li+  Li2  1  0.40855000  0.50200000  0.32440000  1.0
  Li+  Li2  1  0.90855000  0.00200000  0.32440000  1.0
  Li+  Li2  1  0.90855000  0.50200000  0.32440000  1.0
  Li+  Li24  1  0.76085000  0.00605000  0.99930000  1.0
  Li+  Li24  1  0.76085000  0.50605000  0.99930000  1.0
  Li+  Li25  1  0.23915000  0.25605000  0.00070000  1.0
  Li+  Li25  1  0.23915000  0.75605000  0.00070000  1.0
  Li+  Li26  1  0.73915000  0.25605000  0.00070000  1.0
  Li+  Li26  1  0.73915000  0.75605000  0.00070000  1.0
  Li+  Li27  1  0.01085000  0.49395000  0.50070000  1.0
  Li+  Li27  1  0.01085000  0.99395000  0.50070000  1.0
  Li+  Li28  1  0.51085000  0.49395000  0.50070000  1.0
  Li+  Li28  1  0.51085000  0.99395000  0.50070000  1.0
  Li+  Li29  1  0.23915000  0.49395000  0.00070000  1.0
  Li+  Li29  1  0.23915000  0.99395000  0.00070000  1.0
  Li+  Li30  1  0.48915000  0.24395000  0.49930000  1.0
  Li+  Li30  1  0.48915000  0.74395000  0.49930000  1.0
  Li+  Li31  1  0.98915000  0.24395000  0.49930000  1.0
  Li+  Li31  1  0.98915000  0.74395000  0.49930000  1.0
  Sn4+  Sn1  1  0.32145000  0.37500000  0.59245000  1.0
  Sn4+  Sn1  1  0.32145000  0.87500000  0.59245000  1.0
  Sn4+  Sn1  1  0.82145000  0.37500000  0.59245000  1.0
  Sn4+  Sn1  1  0.82145000  0.87500000  0.59245000  1.0
  Sn4+  Sn1  1  0.17855000  0.12500000  0.40755000  1.0
  Sn4+  Sn1  1  0.17855000  0.62500000  0.40755000  1.0
  Sn4+  Sn1  1  0.67855000  0.12500000  0.40755000  1.0
  Sn4+  Sn1  1  0.67855000  0.62500000  0.40755000  1.0
  Sn4+  Sn1  1  0.07145000  0.12500000  0.90755000  1.0
  Sn4+  Sn1  1  0.07145000  0.62500000  0.90755000  1.0
  Sn4+  Sn1  1  0.57145000  0.12500000  0.90755000  1.0
  Sn4+  Sn1  1  0.57145000  0.62500000  0.90755000  1.0
  Sn4+  Sn1  1  0.42855000  0.37500000  0.09245000  1.0
  Sn4+  Sn1  1  0.42855000  0.87500000  0.09245000  1.0
  Sn4+  Sn1  1  0.92855000  0.37500000  0.09245000  1.0
  Sn4+  Sn1  1  0.92855000  0.87500000  0.09245000  1.0
  Se2-  Se1  1  0.39169000  0.00084500  0.66127000  1.0
  Se2-  Se1  1  0.39169000  0.50084500  0.66127000  1.0
  Se2-  Se1  1  0.89169000  0.00084500  0.66127000  1.0
  Se2-  Se1  1  0.89169000  0.50084500  0.66127000  1.0
  Se2-  Se1  1  0.10831000  0.25084500  0.33873000  1.0
  Se2-  Se1  1  0.10831000  0.75084500  0.33873000  1.0
  Se2-  Se1  1  0.60831000  0.25084500  0.33873000  1.0
  Se2-  Se1  1  0.60831000  0.75084500  0.33873000  1.0
  Se2-  Se1  1  0.14169000  0.49915500  0.83873000  1.0
  Se2-  Se1  1  0.14169000  0.99915500  0.83873000  1.0
  Se2-  Se1  1  0.64169000  0.49915500  0.83873000  1.0
  Se2-  Se1  1  0.64169000  0.99915500  0.83873000  1.0
  Se2-  Se1  1  0.14169000  0.25084500  0.83873000  1.0
  Se2-  Se1  1  0.14169000  0.75084500  0.83873000  1.0
  Se2-  Se1  1  0.64169000  0.25084500  0.83873000  1.0
  Se2-  Se1  1  0.64169000  0.75084500  0.83873000  1.0
  Se2-  Se1  1  0.39169000  0.24915500  0.66127000  1.0
  Se2-  Se1  1  0.39169000  0.74915500  0.66127000  1.0
  Se2-  Se1  1  0.89169000  0.24915500  0.66127000  1.0
  Se2-  Se1  1  0.89169000  0.74915500  0.66127000  1.0
  Se2-  Se1  1  0.10831000  0.49915500  0.33873000  1.0
  Se2-  Se1  1  0.10831000  0.99915500  0.33873000  1.0
  Se2-  Se1  1  0.60831000  0.49915500  0.33873000  1.0
  Se2-  Se1  1  0.60831000  0.99915500  0.33873000  1.0
  Se2-  Se1  1  0.35831000  0.24915500  0.16127000  1.0
  Se2-  Se1  1  0.35831000  0.74915500  0.16127000  1.0
  Se2-  Se1  1  0.85831000  0.24915500  0.16127000  1.0
  Se2-  Se1  1  0.85831000  0.74915500  0.16127000  1.0
  Se2-  Se1  1  0.35831000  0.00084500  0.16127000  1.0
  Se2-  Se1  1  0.35831000  0.50084500  0.16127000  1.0
  Se2-  Se1  1  0.85831000  0.00084500  0.16127000  1.0
  Se2-  Se1  1  0.85831000  0.50084500  0.16127000  1.0
  Se2-  Se2  1  0.38260000  0.12500000  0.91704000  1.0
  Se2-  Se2  1  0.38260000  0.62500000  0.91704000  1.0
  Se2-  Se2  1  0.88260000  0.12500000  0.91704000  1.0
  Se2-  Se2  1  0.88260000  0.62500000  0.91704000  1.0
  Se2-  Se2  1  0.11740000  0.37500000  0.08296000  1.0
  Se2-  Se2  1  0.11740000  0.87500000  0.08296000  1.0
  Se2-  Se2  1  0.61740000  0.37500000  0.08296000  1.0
  Se2-  Se2  1  0.61740000  0.87500000  0.08296000  1.0
  Se2-  Se2  1  0.13260000  0.37500000  0.58296000  1.0
  Se2-  Se2  1  0.13260000  0.87500000  0.58296000  1.0
  Se2-  Se2  1  0.63260000  0.37500000  0.58296000  1.0
  Se2-  Se2  1  0.63260000  0.87500000  0.58296000  1.0
  Se2-  Se2  1  0.36740000  0.12500000  0.41704000  1.0
  Se2-  Se2  1  0.36740000  0.62500000  0.41704000  1.0
  Se2-  Se2  1  0.86740000  0.12500000  0.41704000  1.0
  Se2-  Se2  1  0.86740000  0.62500000  0.41704000  1.0
  Se2-  Se3  1  0.36450000  0.37500000  0.93244000  1.0
  Se2-  Se3  1  0.36450000  0.87500000  0.93244000  1.0
  Se2-  Se3  1  0.86450000  0.37500000  0.93244000  1.0
  Se2-  Se3  1  0.86450000  0.87500000  0.93244000  1.0
  Se2-  Se3  1  0.13550000  0.12500000  0.06756000  1.0
  Se2-  Se3  1  0.13550000  0.62500000  0.06756000  1.0
  Se2-  Se3  1  0.63550000  0.12500000  0.06756000  1.0
  Se2-  Se3  1  0.63550000  0.62500000  0.06756000  1.0
  Se2-  Se3  1  0.11450000  0.12500000  0.56756000  1.0
  Se2-  Se3  1  0.11450000  0.62500000  0.56756000  1.0
  Se2-  Se3  1  0.61450000  0.12500000  0.56756000  1.0
  Se2-  Se3  1  0.61450000  0.62500000  0.56756000  1.0
  Se2-  Se3  1  0.38550000  0.37500000  0.43244000  1.0
  Se2-  Se3  1  0.38550000  0.87500000  0.43244000  1.0
  Se2-  Se3  1  0.88550000  0.37500000  0.43244000  1.0
  Se2-  Se3  1  0.88550000  0.87500000  0.43244000  1.0
