# generated using pymatgen
data_Li3PS4
_symmetry_space_group_name_H-M   'P 1'
_cell_length_a   12.24720000
_cell_length_b   16.43900000
_cell_length_c   12.81900000
_cell_angle_alpha   90.00000000
_cell_angle_beta   90.00000000
_cell_angle_gamma   90.00000000
_symmetry_Int_Tables_number   1
_chemical_formula_structural   Li3PS4
_chemical_formula_sum   'Li48 P16 S64'
_cell_volume   2580.87132894
_cell_formula_units_Z   16
loop_
 _symmetry_equiv_pos_site_id
 _symmetry_equiv_pos_as_xyz
  1  'x, y, z'
loop_
 _atom_type_symbol
 _atom_type_oxidation_number
  Li+  1.0
  P5+  5.0
  S2-  -2.0
loop_
 _atom_site_type_symbol
 _atom_site_label
 _atom_site_symmetry_multiplicity
 _atom_site_fract_x
 _atom_site_fract_y
 _atom_site_fract_z
 _atom_site_occupancy
  Li+  Li1  1  0.46950000  0.49350000  0.14380000  1.0
  Li+  Li1  1  0.46950000  0.99350000  0.14380000  1.0
  Li+  Li1  1  0.96950000  0.49350000  0.14380000  1.0
  Li+  Li1  1  0.96950000  0.99350000  0.14380000  1.0
  Li+  Li1  1  0.28050000  0.25650000  0.64380000  1.0
  Li+  Li1  1  0.28050000  0.75650000  0.64380000  1.0
  Li+  Li1  1  0.78050000  0.25650000  0.64380000  1.0
  Li+  Li1  1  0.78050000  0.75650000  0.64380000  1.0
  Li+  Li1  1  0.03050000  0.24350000  0.85620000  1.0
  Li+  Li1  1  0.03050000  0.74350000  0.85620000  1.0
  Li+  Li1  1  0.53050000  0.24350000  0.85620000  1.0
  Li+  Li1  1  0.53050000  0.74350000  0.85620000  1.0
  Li+  Li1  1  0.21950000  0.00650000  0.35620000  1.0
  Li+  Li1  1  0.21950000  0.50650000  0.35620000  1.0
  Li+  Li1  1  0.71950000  0.00650000  0.35620000  1.0
  Li+  Li1  1  0.71950000  0.50650000  0.35620000  1.0
  Li+  Li1  1  0.03050000  0.00650000  0.85620000  1.0
  Li+  Li1  1  0.03050000  0.50650000  0.85620000  1.0
  Li+  Li1  1  0.53050000  0.00650000  0.85620000  1.0
  Li+  Li1  1  0.53050000  0.50650000  0.85620000  1.0
  Li+  Li1  1  0.21950000  0.24350000  0.35620000  1.0
  Li+  Li1  1  0.21950000  0.74350000  0.35620000  1.0
  Li+  Li1  1  0.71950000  0.24350000  0.35620000  1.0
  Li+  Li1  1  0.71950000  0.74350000  0.35620000  1.0
  Li+  Li1  1  0.46950000  0.25650000  0.14380000  1.0
  Li+  Li1  1  0.46950000  0.75650000  0.14380000  1.0
  Li+  Li1  1  0.96950000  0.25650000  0.14380000  1.0
  Li+  Li1  1  0.96950000  0.75650000  0.14380000  1.0
  Li+  Li1  1  0.28050000  0.49350000  0.64380000  1.0
  Li+  Li1  1  0.28050000  0.99350000  0.64380000  1.0
  Li+  Li1  1  0.78050000  0.49350000  0.64380000  1.0
  Li+  Li1  1  0.78050000  0.99350000  0.64380000  1.0
  Li+  Li32  1  0.69450000  0.87500000  0.50100000  1.0
  Li+  Li33  1  0.05550000  0.87500000  0.00100000  1.0
  Li+  Li34  1  0.55550000  0.87500000  0.00100000  1.0
  Li+  Li35  1  0.80550000  0.62500000  0.49900000  1.0
  Li+  Li36  1  0.44450000  0.62500000  0.99900000  1.0
  Li+  Li37  1  0.00000000  0.00000000  0.50000000  1.0
  Li+  Li38  1  0.00000000  0.50000000  0.50000000  1.0
  Li+  Li39  1  0.50000000  0.50000000  0.50000000  1.0
  Li+  Li40  1  0.25000000  0.25000000  0.00000000  1.0
  Li+  Li41  1  0.75000000  0.25000000  0.00000000  1.0
  Li+  Li42  1  0.75000000  0.75000000  0.00000000  1.0
  Li+  Li43  1  0.00000000  0.25000000  0.50000000  1.0
  Li+  Li44  1  0.50000000  0.25000000  0.50000000  1.0
  Li+  Li45  1  0.50000000  0.75000000  0.50000000  1.0
  Li+  Li46  1  0.25000000  0.00000000  0.00000000  1.0
  Li+  Li47  1  0.25000000  0.50000000  0.00000000  1.0
  P5+  P1  1  0.33595000  0.37500000  0.41280000  1.0
  P5+  P1  1  0.33595000  0.87500000  0.41280000  1.0
  P5+  P1  1  0.83595000  0.37500000  0.41280000  1.0
  P5+  P1  1  0.83595000  0.87500000  0.41280000  1.0
  P5+  P1  1  0.41405000  0.37500000  0.91280000  1.0
  P5+  P1  1  0.41405000  0.87500000  0.91280000  1.0
  P5+  P1  1  0.91405000  0.37500000  0.91280000  1.0
  P5+  P1  1  0.91405000  0.87500000  0.91280000  1.0
  P5+  P1  1  0.16405000  0.12500000  0.58720000  1.0
  P5+  P1  1  0.16405000  0.62500000  0.58720000  1.0
  P5+  P1  1  0.66405000  0.12500000  0.58720000  1.0
  P5+  P1  1  0.66405000  0.62500000  0.58720000  1.0
  P5+  P1  1  0.08595000  0.12500000  0.08720000  1.0
  P5+  P1  1  0.08595000  0.62500000  0.08720000  1.0
  P5+  P1  1  0.58595000  0.12500000  0.08720000  1.0
  P5+  P1  1  0.58595000  0.62500000  0.08720000  1.0
  S2-  S1  1  0.39260000  0.47710000  0.34490000  1.0
  S2-  S1  1  0.39260000  0.97710000  0.34490000  1.0
  S2-  S1  1  0.89260000  0.47710000  0.34490000  1.0
  S2-  S1  1  0.89260000  0.97710000  0.34490000  1.0
  S2-  S1  1  0.35740000  0.27290000  0.84490000  1.0
  S2-  S1  1  0.35740000  0.77290000  0.84490000  1.0
  S2-  S1  1  0.85740000  0.27290000  0.84490000  1.0
  S2-  S1  1  0.85740000  0.77290000  0.84490000  1.0
  S2-  S1  1  0.10740000  0.22710000  0.65510000  1.0
  S2-  S1  1  0.10740000  0.72710000  0.65510000  1.0
  S2-  S1  1  0.60740000  0.22710000  0.65510000  1.0
  S2-  S1  1  0.60740000  0.72710000  0.65510000  1.0
  S2-  S1  1  0.14260000  0.02290000  0.15510000  1.0
  S2-  S1  1  0.14260000  0.52290000  0.15510000  1.0
  S2-  S1  1  0.64260000  0.02290000  0.15510000  1.0
  S2-  S1  1  0.64260000  0.52290000  0.15510000  1.0
  S2-  S1  1  0.10740000  0.02290000  0.65510000  1.0
  S2-  S1  1  0.10740000  0.52290000  0.65510000  1.0
  S2-  S1  1  0.60740000  0.02290000  0.65510000  1.0
  S2-  S1  1  0.60740000  0.52290000  0.65510000  1.0
  S2-  S1  1  0.14260000  0.22710000  0.15510000  1.0
  S2-  S1  1  0.14260000  0.72710000  0.15510000  1.0
  S2-  S1  1  0.64260000  0.22710000  0.15510000  1.0
  S2-  S1  1  0.64260000  0.72710000  0.15510000  1.0
  S2-  S1  1  0.39260000  0.27290000  0.34490000  1.0
  S2-  S1  1  0.39260000  0.77290000  0.34490000  1.0
  S2-  S1  1  0.89260000  0.27290000  0.34490000  1.0
  S2-  S1  1  0.89260000  0.77290000  0.34490000  1.0
  S2-  S1  1  0.35740000  0.47710000  0.84490000  1.0
  S2-  S1  1  0.35740000  0.97710000  0.84490000  1.0
  S2-  S1  1  0.85740000  0.47710000  0.84490000  1.0
  S2-  S1  1  0.85740000  0.97710000  0.84490000  1.0
  S2-  S2  1  0.37870000  0.37500000  0.56540000  1.0
  S2-  S2  1  0.37870000  0.87500000  0.56540000  1.0
  S2-  S2  1  0.87870000  0.37500000  0.56540000  1.0
  S2-  S2  1  0.87870000  0.87500000  0.56540000  1.0
  S2-  S2  1  0.37130000  0.37500000  0.06540000  1.0
  S2-  S2  1  0.37130000  0.87500000  0.06540000  1.0
  S2-  S2  1  0.87130000  0.37500000  0.06540000  1.0
  S2-  S2  1  0.87130000  0.87500000  0.06540000  1.0
  S2-  S2  1  0.12130000  0.12500000  0.43460000  1.0
  S2-  S2  1  0.12130000  0.62500000  0.43460000  1.0
  S2-  S2  1  0.62130000  0.12500000  0.43460000  1.0
  S2-  S2  1  0.62130000  0.62500000  0.43460000  1.0
  S2-  S2  1  0.12870000  0.12500000  0.93460000  1.0
  S2-  S2  1  0.12870000  0.62500000  0.93460000  1.0
  S2-  S2  1  0.62870000  0.12500000  0.93460000  1.0
  S2-  S2  1  0.62870000  0.62500000  0.93460000  1.0
  S2-  S3  1  0.16830000  0.37500000  0.39320000  1.0
  S2-  S3  1  0.16830000  0.87500000  0.39320000  1.0
  S2-  S3  1  0.66830000  0.37500000  0.39320000  1.0
  S2-  S3  1  0.66830000  0.87500000  0.39320000  1.0
  S2-  S3  1  0.08170000  0.37500000  0.89320000  1.0
  S2-  S3  1  0.08170000  0.87500000  0.89320000  1.0
  S2-  S3  1  0.58170000  0.37500000  0.89320000  1.0
  S2-  S3  1  0.58170000  0.87500000  0.89320000  1.0
  S2-  S3  1  0.33170000  0.12500000  0.60680000  1.0
  S2-  S3  1  0.33170000  0.62500000  0.60680000  1.0
  S2-  S3  1  0.83170000  0.12500000  0.60680000  1.0
  S2-  S3  1  0.83170000  0.62500000  0.60680000  1.0
  S2-  S3  1  0.41830000  0.12500000  0.10680000  1.0
  S2-  S3  1  0.41830000  0.62500000  0.10680000  1.0
  S2-  S3  1  0.91830000  0.12500000  0.10680000  1.0
  S2-  S3  1  0.91830000  0.62500000  0.10680000  1.0
