# generated using pymatgen
data_Li10Mg(PS3)6
_symmetry_space_group_name_H-M   'P 1'
_cell_length_a   12.14960000
_cell_length_b   18.22440000
_cell_length_c   13.19080000
_cell_angle_alpha   90.00000000
_cell_angle_beta   90.00000000
_cell_angle_gamma   120.00000000
_symmetry_Int_Tables_number   1
_chemical_formula_structural   Li10Mg(PS3)6
_chemical_formula_sum   'Li40 Mg4 P24 S72'
_cell_volume   2529.39692477
_cell_formula_units_Z   4
loop_
 _symmetry_equiv_pos_site_id
 _symmetry_equiv_pos_as_xyz
  1  'x, y, z'
loop_
 _atom_type_symbol
 _atom_type_oxidation_number
  Li+  1.0
  Mg2+  2.0
  P5+  5.0
  S2-  -2.0
loop_
 _atom_site_type_symbol
 _atom_site_label
 _atom_site_symmetry_multiplicity
 _atom_site_fract_x
 _atom_site_fract_y
 _atom_site_fract_z
 _atom_site_occupancy
  Li+  Li0  1  0.33333333  0.11111111  0.50000000  1.0
  Li+  Li1  1  0.33333333  0.44444444  0.00000000  1.0
  Li+  Li2  1  0.33333333  0.44444444  0.50000000  1.0
  Li+  Li3  1  0.33333333  0.77777778  0.00000000  1.0
  Li+  Li4  1  0.33333333  0.77777778  0.50000000  1.0
  Li+  Li5  1  0.83333333  0.11111111  0.00000000  1.0
  Li+  Li6  1  0.83333333  0.11111111  0.50000000  1.0
  Li+  Li7  1  0.83333333  0.44444444  0.00000000  1.0
  Li+  Li8  1  0.83333333  0.44444444  0.50000000  1.0
  Li+  Li9  1  0.83333333  0.77777778  0.50000000  1.0
  Li+  Li10  1  0.16666667  0.22222222  0.00000000  1.0
  Li+  Li11  1  0.16666667  0.22222222  0.50000000  1.0
  Li+  Li12  1  0.16666667  0.55555556  0.00000000  1.0
  Li+  Li13  1  0.16666667  0.55555556  0.50000000  1.0
  Li+  Li14  1  0.66666667  0.22222222  0.00000000  1.0
  Li+  Li15  1  0.66666667  0.22222222  0.50000000  1.0
  Li+  Li16  1  0.66666667  0.55555556  0.00000000  1.0
  Li+  Li17  1  0.66666667  0.55555556  0.50000000  1.0
  Li+  Li18  1  0.66666667  0.88888889  0.00000000  1.0
  Li+  Li19  1  0.66666667  0.88888889  0.50000000  1.0
  Li+  Li20  1  0.33333333  0.11111111  0.25000000  1.0
  Li+  Li21  1  0.33333333  0.44444444  0.25000000  1.0
  Li+  Li22  1  0.33333333  0.44444444  0.75000000  1.0
  Li+  Li23  1  0.33333333  0.77777778  0.25000000  1.0
  Li+  Li24  1  0.33333333  0.77777778  0.75000000  1.0
  Li+  Li25  1  0.83333333  0.11111111  0.25000000  1.0
  Li+  Li26  1  0.83333333  0.11111111  0.75000000  1.0
  Li+  Li27  1  0.83333333  0.44444444  0.25000000  1.0
  Li+  Li28  1  0.83333333  0.77777778  0.25000000  1.0
  Li+  Li29  1  0.83333333  0.77777778  0.75000000  1.0
  Li+  Li30  1  0.16666667  0.22222222  0.25000000  1.0
  Li+  Li31  1  0.16666667  0.22222222  0.75000000  1.0
  Li+  Li32  1  0.16666667  0.55555556  0.25000000  1.0
  Li+  Li33  1  0.16666667  0.55555556  0.75000000  1.0
  Li+  Li34  1  0.66666667  0.22222222  0.25000000  1.0
  Li+  Li35  1  0.66666667  0.22222222  0.75000000  1.0
  Li+  Li36  1  0.66666667  0.55555556  0.25000000  1.0
  Li+  Li37  1  0.66666667  0.55555556  0.75000000  1.0
  Li+  Li38  1  0.66666667  0.88888889  0.25000000  1.0
  Li+  Li39  1  0.66666667  0.88888889  0.75000000  1.0
  Mg2+  Mg40  1  0.33333333  0.11111111  0.75000000  1.0
  Mg2+  Mg41  1  0.83333333  0.44444444  0.75000000  1.0
  Mg2+  Mg42  1  0.16666667  0.88888889  0.25000000  1.0
  Mg2+  Mg43  1  0.16666667  0.88888889  0.75000000  1.0
  P5+  P44  1  0.00000000  0.33333333  0.58490000  1.0
  P5+  P45  1  0.00000000  0.66666667  0.08490000  1.0
  P5+  P46  1  0.00000000  0.66666667  0.91510000  1.0
  P5+  P47  1  0.50000000  0.33333333  0.91510000  1.0
  P5+  P48  1  0.50000000  0.66666667  0.41510000  1.0
  P5+  P49  1  0.00000000  0.00000000  0.16515000  1.0
  P5+  P50  1  0.00000000  0.00000000  0.66515000  1.0
  P5+  P51  1  0.00000000  0.33333333  0.16515000  1.0
  P5+  P52  1  0.00000000  0.33333333  0.66515000  1.0
  P5+  P53  1  0.00000000  0.66666667  0.16515000  1.0
  P5+  P54  1  0.00000000  0.66666667  0.66515000  1.0
  P5+  P55  1  0.50000000  0.00000000  0.16515000  1.0
  P5+  P56  1  0.50000000  0.00000000  0.66515000  1.0
  P5+  P57  1  0.50000000  0.33333333  0.16515000  1.0
  P5+  P58  1  0.50000000  0.33333333  0.66515000  1.0
  P5+  P59  1  0.50000000  0.66666667  0.16515000  1.0
  P5+  P60  1  0.50000000  0.66666667  0.66515000  1.0
  P5+  P61  1  0.00000000  0.00000000  0.33485000  1.0
  P5+  P62  1  0.00000000  0.00000000  0.83485000  1.0
  P5+  P63  1  0.00000000  0.33333333  0.83485000  1.0
  P5+  P64  1  0.00000000  0.66666667  0.33485000  1.0
  P5+  P65  1  0.50000000  0.00000000  0.33485000  1.0
  P5+  P66  1  0.50000000  0.33333333  0.33485000  1.0
  P5+  P67  1  0.50000000  0.66666667  0.83485000  1.0
  S2-  S1  1  0.16185000  0.10790000  0.12695000  1.0
  S2-  S1  1  0.16185000  0.10790000  0.62695000  1.0
  S2-  S1  1  0.16185000  0.44123333  0.12695000  1.0
  S2-  S1  1  0.16185000  0.44123333  0.62695000  1.0
  S2-  S1  1  0.16185000  0.77456667  0.12695000  1.0
  S2-  S1  1  0.16185000  0.77456667  0.62695000  1.0
  S2-  S1  1  0.66185000  0.10790000  0.12695000  1.0
  S2-  S1  1  0.66185000  0.10790000  0.62695000  1.0
  S2-  S1  1  0.66185000  0.44123333  0.12695000  1.0
  S2-  S1  1  0.66185000  0.44123333  0.62695000  1.0
  S2-  S1  1  0.66185000  0.77456667  0.12695000  1.0
  S2-  S1  1  0.66185000  0.77456667  0.62695000  1.0
  S2-  S1  1  0.33815000  0.33333333  0.12695000  1.0
  S2-  S1  1  0.33815000  0.33333333  0.62695000  1.0
  S2-  S1  1  0.33815000  0.66666667  0.12695000  1.0
  S2-  S1  1  0.33815000  0.66666667  0.62695000  1.0
  S2-  S1  1  0.33815000  0.00000000  0.12695000  1.0
  S2-  S1  1  0.33815000  0.00000000  0.62695000  1.0
  S2-  S1  1  0.83815000  0.33333333  0.12695000  1.0
  S2-  S1  1  0.83815000  0.33333333  0.62695000  1.0
  S2-  S1  1  0.83815000  0.66666667  0.12695000  1.0
  S2-  S1  1  0.83815000  0.66666667  0.62695000  1.0
  S2-  S1  1  0.83815000  0.00000000  0.12695000  1.0
  S2-  S1  1  0.83815000  0.00000000  0.62695000  1.0
  S2-  S1  1  0.50000000  0.22543333  0.12695000  1.0
  S2-  S1  1  0.50000000  0.22543333  0.62695000  1.0
  S2-  S1  1  0.50000000  0.55876667  0.12695000  1.0
  S2-  S1  1  0.50000000  0.55876667  0.62695000  1.0
  S2-  S1  1  0.50000000  0.89210000  0.12695000  1.0
  S2-  S1  1  0.50000000  0.89210000  0.62695000  1.0
  S2-  S1  1  0.00000000  0.22543333  0.12695000  1.0
  S2-  S1  1  0.00000000  0.22543333  0.62695000  1.0
  S2-  S1  1  0.00000000  0.55876667  0.12695000  1.0
  S2-  S1  1  0.00000000  0.55876667  0.62695000  1.0
  S2-  S1  1  0.00000000  0.89210000  0.12695000  1.0
  S2-  S1  1  0.00000000  0.89210000  0.62695000  1.0
  S2-  S1  1  0.33815000  0.22543333  0.37305000  1.0
  S2-  S1  1  0.33815000  0.22543333  0.87305000  1.0
  S2-  S1  1  0.33815000  0.55876667  0.37305000  1.0
  S2-  S1  1  0.33815000  0.55876667  0.87305000  1.0
  S2-  S1  1  0.33815000  0.89210000  0.37305000  1.0
  S2-  S1  1  0.33815000  0.89210000  0.87305000  1.0
  S2-  S1  1  0.83815000  0.22543333  0.37305000  1.0
  S2-  S1  1  0.83815000  0.22543333  0.87305000  1.0
  S2-  S1  1  0.83815000  0.55876667  0.37305000  1.0
  S2-  S1  1  0.83815000  0.55876667  0.87305000  1.0
  S2-  S1  1  0.83815000  0.89210000  0.37305000  1.0
  S2-  S1  1  0.83815000  0.89210000  0.87305000  1.0
  S2-  S1  1  0.16185000  0.00000000  0.37305000  1.0
  S2-  S1  1  0.16185000  0.00000000  0.87305000  1.0
  S2-  S1  1  0.16185000  0.33333333  0.37305000  1.0
  S2-  S1  1  0.16185000  0.33333333  0.87305000  1.0
  S2-  S1  1  0.16185000  0.66666667  0.37305000  1.0
  S2-  S1  1  0.16185000  0.66666667  0.87305000  1.0
  S2-  S1  1  0.66185000  0.00000000  0.37305000  1.0
  S2-  S1  1  0.66185000  0.00000000  0.87305000  1.0
  S2-  S1  1  0.66185000  0.33333333  0.37305000  1.0
  S2-  S1  1  0.66185000  0.33333333  0.87305000  1.0
  S2-  S1  1  0.66185000  0.66666667  0.37305000  1.0
  S2-  S1  1  0.66185000  0.66666667  0.87305000  1.0
  S2-  S1  1  0.50000000  0.10790000  0.37305000  1.0
  S2-  S1  1  0.50000000  0.10790000  0.87305000  1.0
  S2-  S1  1  0.50000000  0.44123333  0.37305000  1.0
  S2-  S1  1  0.50000000  0.44123333  0.87305000  1.0
  S2-  S1  1  0.50000000  0.77456667  0.37305000  1.0
  S2-  S1  1  0.50000000  0.77456667  0.87305000  1.0
  S2-  S1  1  0.00000000  0.10790000  0.37305000  1.0
  S2-  S1  1  0.00000000  0.10790000  0.87305000  1.0
  S2-  S1  1  0.00000000  0.44123333  0.37305000  1.0
  S2-  S1  1  0.00000000  0.44123333  0.87305000  1.0
  S2-  S1  1  0.00000000  0.77456667  0.37305000  1.0
  S2-  S1  1  0.00000000  0.77456667  0.87305000  1.0
