# generated using pymatgen
data_Li62Sn3Sb17S80
_symmetry_space_group_name_H-M   'P 1'
_cell_length_a   7.97113000
_cell_length_b   13.71490000
_cell_length_c   31.86930000
_cell_angle_alpha   90.00000000
_cell_angle_beta   90.00000000
_cell_angle_gamma   90.00000000
_symmetry_Int_Tables_number   1
_chemical_formula_structural   Li62Sn3Sb17S80
_chemical_formula_sum   'Li62 Sn3 Sb17 S80'
_cell_volume   3484.05547790
_cell_formula_units_Z   1
loop_
 _symmetry_equiv_pos_site_id
 _symmetry_equiv_pos_as_xyz
  1  'x, y, z'
loop_
 _atom_type_symbol
 _atom_type_oxidation_number
  Li+  1.0
  Sn4+  4.0
  Sb5+  5.0
  S2-  -2.0
loop_
 _atom_site_type_symbol
 _atom_site_label
 _atom_site_symmetry_multiplicity
 _atom_site_fract_x
 _atom_site_fract_y
 _atom_site_fract_z
 _atom_site_occupancy
  Li+  Li1  1  0.25430000  0.08735000  0.10120000  1.0
  Li+  Li1  1  0.25430000  0.08735000  0.30120000  1.0
  Li+  Li1  1  0.25430000  0.08735000  0.50120000  1.0
  Li+  Li1  1  0.25430000  0.08735000  0.70120000  1.0
  Li+  Li1  1  0.25430000  0.08735000  0.90120000  1.0
  Li+  Li1  1  0.25430000  0.58735000  0.10120000  1.0
  Li+  Li1  1  0.25430000  0.58735000  0.30120000  1.0
  Li+  Li1  1  0.25430000  0.58735000  0.50120000  1.0
  Li+  Li1  1  0.25430000  0.58735000  0.70120000  1.0
  Li+  Li1  1  0.25430000  0.58735000  0.90120000  1.0
  Li+  Li1  1  0.24570000  0.41265000  0.00120000  1.0
  Li+  Li1  1  0.24570000  0.41265000  0.20120000  1.0
  Li+  Li1  1  0.24570000  0.41265000  0.40120000  1.0
  Li+  Li1  1  0.24570000  0.41265000  0.60120000  1.0
  Li+  Li1  1  0.24570000  0.41265000  0.80120000  1.0
  Li+  Li1  1  0.24570000  0.91265000  0.00120000  1.0
  Li+  Li1  1  0.24570000  0.91265000  0.20120000  1.0
  Li+  Li1  1  0.24570000  0.91265000  0.40120000  1.0
  Li+  Li1  1  0.24570000  0.91265000  0.60120000  1.0
  Li+  Li1  1  0.24570000  0.91265000  0.80120000  1.0
  Li+  Li1  1  0.75430000  0.41265000  0.00120000  1.0
  Li+  Li1  1  0.75430000  0.41265000  0.20120000  1.0
  Li+  Li1  1  0.75430000  0.41265000  0.40120000  1.0
  Li+  Li1  1  0.75430000  0.41265000  0.60120000  1.0
  Li+  Li1  1  0.75430000  0.41265000  0.80120000  1.0
  Li+  Li1  1  0.75430000  0.91265000  0.00120000  1.0
  Li+  Li1  1  0.75430000  0.91265000  0.20120000  1.0
  Li+  Li1  1  0.75430000  0.91265000  0.40120000  1.0
  Li+  Li1  1  0.75430000  0.91265000  0.60120000  1.0
  Li+  Li1  1  0.75430000  0.91265000  0.80120000  1.0
  Li+  Li1  1  0.74570000  0.08735000  0.10120000  1.0
  Li+  Li1  1  0.74570000  0.08735000  0.30120000  1.0
  Li+  Li1  1  0.74570000  0.08735000  0.50120000  1.0
  Li+  Li1  1  0.74570000  0.08735000  0.70120000  1.0
  Li+  Li1  1  0.74570000  0.08735000  0.90120000  1.0
  Li+  Li1  1  0.74570000  0.58735000  0.10120000  1.0
  Li+  Li1  1  0.74570000  0.58735000  0.30120000  1.0
  Li+  Li1  1  0.74570000  0.58735000  0.50120000  1.0
  Li+  Li1  1  0.74570000  0.58735000  0.70120000  1.0
  Li+  Li1  1  0.74570000  0.58735000  0.90120000  1.0
  Li+  Li2  1  0.00000000  0.32685000  0.10260000  1.0
  Li+  Li2  1  0.00000000  0.32685000  0.30260000  1.0
  Li+  Li2  1  0.00000000  0.32685000  0.50260000  1.0
  Li+  Li2  1  0.00000000  0.32685000  0.70260000  1.0
  Li+  Li2  1  0.00000000  0.32685000  0.90260000  1.0
  Li+  Li2  1  0.00000000  0.82685000  0.10260000  1.0
  Li+  Li2  1  0.00000000  0.82685000  0.30260000  1.0
  Li+  Li2  1  0.00000000  0.82685000  0.50260000  1.0
  Li+  Li2  1  0.00000000  0.82685000  0.70260000  1.0
  Li+  Li2  1  0.00000000  0.82685000  0.90260000  1.0
  Li+  Li2  1  0.50000000  0.17315000  0.00260000  1.0
  Li+  Li2  1  0.50000000  0.17315000  0.20260000  1.0
  Li+  Li2  1  0.50000000  0.17315000  0.40260000  1.0
  Li+  Li2  1  0.50000000  0.17315000  0.60260000  1.0
  Li+  Li2  1  0.50000000  0.17315000  0.80260000  1.0
  Li+  Li2  1  0.50000000  0.67315000  0.00260000  1.0
  Li+  Li2  1  0.50000000  0.67315000  0.20260000  1.0
  Li+  Li2  1  0.50000000  0.67315000  0.40260000  1.0
  Li+  Li2  1  0.50000000  0.67315000  0.60260000  1.0
  Li+  Li2  1  0.50000000  0.67315000  0.80260000  1.0
  Li+  Li60  1  0.50000000  0.99814900  0.16090000  1.0
  Li+  Li61  1  0.50000000  0.99814900  0.36090000  1.0
  Sn4+  Sn62  1  0.50000000  0.33708000  0.30000000  1.0
  Sn4+  Sn63  1  0.50000000  0.33708000  0.90000000  1.0
  Sn4+  Sn64  1  0.50000000  0.83708000  0.30000000  1.0
  Sb5+  Sb65  1  0.00000000  0.16292000  0.00000000  1.0
  Sb5+  Sb66  1  0.00000000  0.16292000  0.20000000  1.0
  Sb5+  Sb67  1  0.00000000  0.16292000  0.40000000  1.0
  Sb5+  Sb68  1  0.00000000  0.16292000  0.60000000  1.0
  Sb5+  Sb69  1  0.00000000  0.16292000  0.80000000  1.0
  Sb5+  Sb70  1  0.00000000  0.66292000  0.00000000  1.0
  Sb5+  Sb71  1  0.00000000  0.66292000  0.20000000  1.0
  Sb5+  Sb72  1  0.00000000  0.66292000  0.40000000  1.0
  Sb5+  Sb73  1  0.00000000  0.66292000  0.60000000  1.0
  Sb5+  Sb74  1  0.00000000  0.66292000  0.80000000  1.0
  Sb5+  Sb75  1  0.50000000  0.33708000  0.10000000  1.0
  Sb5+  Sb76  1  0.50000000  0.33708000  0.50000000  1.0
  Sb5+  Sb77  1  0.50000000  0.33708000  0.70000000  1.0
  Sb5+  Sb78  1  0.50000000  0.83708000  0.10000000  1.0
  Sb5+  Sb79  1  0.50000000  0.83708000  0.50000000  1.0
  Sb5+  Sb80  1  0.50000000  0.83708000  0.70000000  1.0
  Sb5+  Sb81  1  0.50000000  0.83708000  0.90000000  1.0
  S2-  S1  1  0.23890000  0.08320000  0.02316000  1.0
  S2-  S1  1  0.23890000  0.08320000  0.22316000  1.0
  S2-  S1  1  0.23890000  0.08320000  0.42316000  1.0
  S2-  S1  1  0.23890000  0.08320000  0.62316000  1.0
  S2-  S1  1  0.23890000  0.08320000  0.82316000  1.0
  S2-  S1  1  0.23890000  0.58320000  0.02316000  1.0
  S2-  S1  1  0.23890000  0.58320000  0.22316000  1.0
  S2-  S1  1  0.23890000  0.58320000  0.42316000  1.0
  S2-  S1  1  0.23890000  0.58320000  0.62316000  1.0
  S2-  S1  1  0.23890000  0.58320000  0.82316000  1.0
  S2-  S1  1  0.26110000  0.41680000  0.12316000  1.0
  S2-  S1  1  0.26110000  0.41680000  0.32316000  1.0
  S2-  S1  1  0.26110000  0.41680000  0.52316000  1.0
  S2-  S1  1  0.26110000  0.41680000  0.72316000  1.0
  S2-  S1  1  0.26110000  0.41680000  0.92316000  1.0
  S2-  S1  1  0.26110000  0.91680000  0.12316000  1.0
  S2-  S1  1  0.26110000  0.91680000  0.32316000  1.0
  S2-  S1  1  0.26110000  0.91680000  0.52316000  1.0
  S2-  S1  1  0.26110000  0.91680000  0.72316000  1.0
  S2-  S1  1  0.26110000  0.91680000  0.92316000  1.0
  S2-  S1  1  0.73890000  0.41680000  0.12316000  1.0
  S2-  S1  1  0.73890000  0.41680000  0.32316000  1.0
  S2-  S1  1  0.73890000  0.41680000  0.52316000  1.0
  S2-  S1  1  0.73890000  0.41680000  0.72316000  1.0
  S2-  S1  1  0.73890000  0.41680000  0.92316000  1.0
  S2-  S1  1  0.73890000  0.91680000  0.12316000  1.0
  S2-  S1  1  0.73890000  0.91680000  0.32316000  1.0
  S2-  S1  1  0.73890000  0.91680000  0.52316000  1.0
  S2-  S1  1  0.73890000  0.91680000  0.72316000  1.0
  S2-  S1  1  0.73890000  0.91680000  0.92316000  1.0
  S2-  S1  1  0.76110000  0.08320000  0.02316000  1.0
  S2-  S1  1  0.76110000  0.08320000  0.22316000  1.0
  S2-  S1  1  0.76110000  0.08320000  0.42316000  1.0
  S2-  S1  1  0.76110000  0.08320000  0.62316000  1.0
  S2-  S1  1  0.76110000  0.08320000  0.82316000  1.0
  S2-  S1  1  0.76110000  0.58320000  0.02316000  1.0
  S2-  S1  1  0.76110000  0.58320000  0.22316000  1.0
  S2-  S1  1  0.76110000  0.58320000  0.42316000  1.0
  S2-  S1  1  0.76110000  0.58320000  0.62316000  1.0
  S2-  S1  1  0.76110000  0.58320000  0.82316000  1.0
  S2-  S2  1  0.00000000  0.32150000  0.02322000  1.0
  S2-  S2  1  0.00000000  0.32150000  0.22322000  1.0
  S2-  S2  1  0.00000000  0.32150000  0.42322000  1.0
  S2-  S2  1  0.00000000  0.32150000  0.62322000  1.0
  S2-  S2  1  0.00000000  0.32150000  0.82322000  1.0
  S2-  S2  1  0.00000000  0.82150000  0.02322000  1.0
  S2-  S2  1  0.00000000  0.82150000  0.22322000  1.0
  S2-  S2  1  0.00000000  0.82150000  0.42322000  1.0
  S2-  S2  1  0.00000000  0.82150000  0.62322000  1.0
  S2-  S2  1  0.00000000  0.82150000  0.82322000  1.0
  S2-  S2  1  0.50000000  0.17850000  0.12322000  1.0
  S2-  S2  1  0.50000000  0.17850000  0.32322000  1.0
  S2-  S2  1  0.50000000  0.17850000  0.52322000  1.0
  S2-  S2  1  0.50000000  0.17850000  0.72322000  1.0
  S2-  S2  1  0.50000000  0.17850000  0.92322000  1.0
  S2-  S2  1  0.50000000  0.67850000  0.12322000  1.0
  S2-  S2  1  0.50000000  0.67850000  0.32322000  1.0
  S2-  S2  1  0.50000000  0.67850000  0.52322000  1.0
  S2-  S2  1  0.50000000  0.67850000  0.72322000  1.0
  S2-  S2  1  0.50000000  0.67850000  0.92322000  1.0
  S2-  S3  1  0.00000000  0.16000000  0.12672000  1.0
  S2-  S3  1  0.00000000  0.16000000  0.32672000  1.0
  S2-  S3  1  0.00000000  0.16000000  0.52672000  1.0
  S2-  S3  1  0.00000000  0.16000000  0.72672000  1.0
  S2-  S3  1  0.00000000  0.16000000  0.92672000  1.0
  S2-  S3  1  0.00000000  0.66000000  0.12672000  1.0
  S2-  S3  1  0.00000000  0.66000000  0.32672000  1.0
  S2-  S3  1  0.00000000  0.66000000  0.52672000  1.0
  S2-  S3  1  0.00000000  0.66000000  0.72672000  1.0
  S2-  S3  1  0.00000000  0.66000000  0.92672000  1.0
  S2-  S3  1  0.50000000  0.34000000  0.02672000  1.0
  S2-  S3  1  0.50000000  0.34000000  0.22672000  1.0
  S2-  S3  1  0.50000000  0.34000000  0.42672000  1.0
  S2-  S3  1  0.50000000  0.34000000  0.62672000  1.0
  S2-  S3  1  0.50000000  0.34000000  0.82672000  1.0
  S2-  S3  1  0.50000000  0.84000000  0.02672000  1.0
  S2-  S3  1  0.50000000  0.84000000  0.22672000  1.0
  S2-  S3  1  0.50000000  0.84000000  0.42672000  1.0
  S2-  S3  1  0.50000000  0.84000000  0.62672000  1.0
  S2-  S3  1  0.50000000  0.84000000  0.82672000  1.0
