# generated using pymatgen
data_Li4P2O7
_symmetry_space_group_name_H-M   'P 1'
_cell_length_a   10.37160000
_cell_length_b   8.56320000
_cell_length_c   21.32019897
_cell_angle_alpha   103.05417903
_cell_angle_beta   68.63916017
_cell_angle_gamma   89.99100000
_symmetry_Int_Tables_number   1
_chemical_formula_structural   Li4P2O7
_chemical_formula_sum   'Li48 P24 O84'
_cell_volume   1710.77916681
_cell_formula_units_Z   12
loop_
 _symmetry_equiv_pos_site_id
 _symmetry_equiv_pos_as_xyz
  1  'x, y, z'
loop_
 _atom_type_symbol
 _atom_type_oxidation_number
  Li+  1.0
  P5+  5.0
  O2-  -2.0
loop_
 _atom_site_type_symbol
 _atom_site_label
 _atom_site_symmetry_multiplicity
 _atom_site_fract_x
 _atom_site_fract_y
 _atom_site_fract_z
 _atom_site_occupancy
  Li+  Li0  1  0.49093411  0.78579934  0.64084737  1.0
  Li+  Li1  1  0.48815000  0.78670000  0.30656667  1.0
  Li+  Li2  1  0.48815000  0.78670000  0.97323333  1.0
  Li+  Li3  1  0.98815000  0.78670000  0.63990000  1.0
  Li+  Li4  1  0.98815000  0.78670000  0.30656667  1.0
  Li+  Li5  1  0.98815000  0.78670000  0.97323333  1.0
  Li+  Li6  1  0.01347680  0.21245181  0.52546723  1.0
  Li+  Li7  1  0.01185000  0.21330000  0.19343333  1.0
  Li+  Li8  1  0.00867870  0.21140080  0.86054408  1.0
  Li+  Li9  1  0.51185000  0.21330000  0.52676667  1.0
  Li+  Li10  1  0.51185000  0.21330000  0.19343333  1.0
  Li+  Li11  1  0.51185000  0.21330000  0.86010000  1.0
  Li+  Li12  1  0.47100000  0.45810000  0.66766667  1.0
  Li+  Li13  1  0.47100000  0.45810000  0.33433333  1.0
  Li+  Li14  1  0.47227967  0.45768391  0.00273781  1.0
  Li+  Li15  1  0.97100000  0.45810000  0.66766667  1.0
  Li+  Li16  1  0.97100000  0.45810000  0.33433333  1.0
  Li+  Li17  1  0.97277460  0.45856266  0.00160699  1.0
  Li+  Li18  1  0.02900000  0.54190000  0.49900000  1.0
  Li+  Li19  1  0.02900000  0.54190000  0.16566667  1.0
  Li+  Li20  1  0.02900000  0.54190000  0.83233333  1.0
  Li+  Li21  1  0.52900000  0.54190000  0.49900000  1.0
  Li+  Li22  1  0.52694211  0.54222920  0.16360668  1.0
  Li+  Li23  1  0.52900000  0.54190000  0.83233333  1.0
  Li+  Li24  1  0.30097560  0.75176869  0.55833249  1.0
  Li+  Li25  1  0.30050000  0.75680000  0.22200000  1.0
  Li+  Li26  1  0.30050000  0.75680000  0.88866667  1.0
  Li+  Li27  1  0.80384742  0.76005211  0.55934454  1.0
  Li+  Li28  1  0.80050000  0.75680000  0.22200000  1.0
  Li+  Li29  1  0.80050000  0.75680000  0.88866667  1.0
  Li+  Li30  1  0.19950000  0.24320000  0.61133333  1.0
  Li+  Li31  1  0.19950000  0.24320000  0.27800000  1.0
  Li+  Li32  1  0.19950000  0.24320000  0.94466667  1.0
  Li+  Li33  1  0.69950000  0.24320000  0.61133333  1.0
  Li+  Li34  1  0.69950000  0.24320000  0.27800000  1.0
  Li+  Li35  1  0.69950000  0.24320000  0.94466667  1.0
  Li+  Li36  1  0.12800000  0.98800000  0.70133333  1.0
  Li+  Li37  1  0.12810799  0.98759272  0.36857420  1.0
  Li+  Li38  1  0.12800000  0.98800000  0.03466667  1.0
  Li+  Li39  1  0.62813580  0.99035390  0.70005296  1.0
  Li+  Li40  1  0.62800000  0.98800000  0.36800000  1.0
  Li+  Li41  1  0.62800000  0.98800000  0.03466667  1.0
  Li+  Li42  1  0.37240387  0.01133275  0.46587338  1.0
  Li+  Li43  1  0.37200000  0.01200000  0.13200000  1.0
  Li+  Li44  1  0.37200000  0.01200000  0.79866667  1.0
  Li+  Li45  1  0.87200000  0.01200000  0.46533333  1.0
  Li+  Li46  1  0.87368613  0.00994509  0.13235852  1.0
  Li+  Li47  1  0.87200000  0.01200000  0.79866667  1.0
  P5+  P48  1  0.10820000  0.84640000  0.49053333  1.0
  P5+  P49  1  0.10820000  0.84640000  0.15720000  1.0
  P5+  P50  1  0.10820000  0.84640000  0.82386667  1.0
  P5+  P51  1  0.60820000  0.84640000  0.49053333  1.0
  P5+  P52  1  0.60820000  0.84640000  0.15720000  1.0
  P5+  P53  1  0.60955070  0.84893045  0.82271907  1.0
  P5+  P54  1  0.39180000  0.15360000  0.67613333  1.0
  P5+  P55  1  0.39180000  0.15360000  0.34280000  1.0
  P5+  P56  1  0.39180000  0.15360000  0.00946667  1.0
  P5+  P57  1  0.89180000  0.15360000  0.67613333  1.0
  P5+  P58  1  0.89180000  0.15360000  0.34280000  1.0
  P5+  P59  1  0.89180000  0.15360000  0.00946667  1.0
  P5+  P60  1  0.21250000  0.63160000  0.67833333  1.0
  P5+  P61  1  0.21250000  0.63160000  0.34500000  1.0
  P5+  P62  1  0.21250000  0.63160000  0.01166667  1.0
  P5+  P63  1  0.71250000  0.63160000  0.67833333  1.0
  P5+  P64  1  0.71250000  0.63160000  0.34500000  1.0
  P5+  P65  1  0.71250000  0.63160000  0.01166667  1.0
  P5+  P66  1  0.28750000  0.36840000  0.48833333  1.0
  P5+  P67  1  0.28750000  0.36840000  0.15500000  1.0
  P5+  P68  1  0.28750000  0.36840000  0.82166667  1.0
  P5+  P69  1  0.78750000  0.36840000  0.48833333  1.0
  P5+  P70  1  0.78750000  0.36840000  0.15500000  1.0
  P5+  P71  1  0.78750000  0.36840000  0.82166667  1.0
  O2-  O72  1  0.13555000  0.68530000  0.42953333  1.0
  O2-  O73  1  0.13555000  0.68530000  0.09620000  1.0
  O2-  O74  1  0.13555000  0.68530000  0.76286667  1.0
  O2-  O75  1  0.63555000  0.68530000  0.42953333  1.0
  O2-  O76  1  0.63555000  0.68530000  0.09620000  1.0
  O2-  O77  1  0.63555000  0.68530000  0.76286667  1.0
  O2-  O78  1  0.36445000  0.31470000  0.73713333  1.0
  O2-  O79  1  0.36305096  0.31236780  0.40467941  1.0
  O2-  O80  1  0.36445000  0.31470000  0.07046667  1.0
  O2-  O81  1  0.86445000  0.31470000  0.73713333  1.0
  O2-  O82  1  0.86545675  0.31174983  0.40445302  1.0
  O2-  O83  1  0.86445000  0.31470000  0.07046667  1.0
  O2-  O84  1  0.24165000  0.87450000  0.50316667  1.0
  O2-  O85  1  0.24063433  0.87419627  0.16858748  1.0
  O2-  O86  1  0.24165000  0.87450000  0.83650000  1.0
  O2-  O87  1  0.74165000  0.87450000  0.50316667  1.0
  O2-  O88  1  0.74165000  0.87450000  0.16983333  1.0
  O2-  O89  1  0.74287365  0.87246202  0.83453246  1.0
  O2-  O90  1  0.25835000  0.12550000  0.66350000  1.0
  O2-  O91  1  0.25835000  0.12550000  0.33016667  1.0
  O2-  O92  1  0.25910417  0.12637356  0.99781089  1.0
  O2-  O93  1  0.75835000  0.12550000  0.66350000  1.0
  O2-  O94  1  0.75835000  0.12550000  0.33016667  1.0
  O2-  O95  1  0.75835000  0.12550000  0.99683333  1.0
  O2-  O96  1  0.49600000  0.79260000  0.54876667  1.0
  O2-  O97  1  0.49600000  0.79260000  0.21543333  1.0
  O2-  O98  1  0.49600000  0.79260000  0.88210000  1.0
  O2-  O99  1  0.99600000  0.79260000  0.54876667  1.0
  O2-  O100  1  0.99546274  0.79148820  0.21649946  1.0
  O2-  O101  1  0.99490836  0.79292336  0.88658589  1.0
  O2-  O102  1  0.00400000  0.20740000  0.61790000  1.0
  O2-  O103  1  0.00367819  0.20582797  0.28919536  1.0
  O2-  O104  1  0.00689028  0.20288043  0.95087009  1.0
  O2-  O105  1  0.50400000  0.20740000  0.61790000  1.0
  O2-  O106  1  0.50400000  0.20740000  0.28456667  1.0
  O2-  O107  1  0.50337823  0.20806211  0.95141151  1.0
  O2-  O108  1  0.06050000  0.98110000  0.46710000  1.0
  O2-  O109  1  0.06050000  0.98110000  0.13376667  1.0
  O2-  O110  1  0.06375187  0.97919354  0.79796731  1.0
  O2-  O111  1  0.56050000  0.98110000  0.46710000  1.0
  O2-  O112  1  0.56050000  0.98110000  0.13376667  1.0
  O2-  O113  1  0.56050000  0.98110000  0.80043333  1.0
  O2-  O114  1  0.43950000  0.01890000  0.69956667  1.0
  O2-  O115  1  0.43993161  0.02283629  0.36040824  1.0
  O2-  O116  1  0.43950000  0.01890000  0.03290000  1.0
  O2-  O117  1  0.94056734  0.01873686  0.69936871  1.0
  O2-  O118  1  0.93950000  0.01890000  0.36623333  1.0
  O2-  O119  1  0.93950000  0.01890000  0.03290000  1.0
  O2-  O120  1  0.36950432  0.61701751  0.66240738  1.0
  O2-  O121  1  0.36835000  0.62070000  0.32936667  1.0
  O2-  O122  1  0.36835000  0.62070000  0.99603333  1.0
  O2-  O123  1  0.86784173  0.62328341  0.66630054  1.0
  O2-  O124  1  0.86835000  0.62070000  0.32936667  1.0
  O2-  O125  1  0.86868033  0.61844367  0.00158802  1.0
  O2-  O126  1  0.12551137  0.37652032  0.50122310  1.0
  O2-  O127  1  0.12993885  0.38070765  0.17526797  1.0
  O2-  O128  1  0.12954681  0.37900545  0.84114293  1.0
  O2-  O129  1  0.63017550  0.38103412  0.50469155  1.0
  O2-  O130  1  0.63165000  0.37930000  0.17063333  1.0
  O2-  O131  1  0.63165000  0.37930000  0.83730000  1.0
  O2-  O132  1  0.15845000  0.47210000  0.65986667  1.0
  O2-  O133  1  0.15845000  0.47210000  0.32653333  1.0
  O2-  O134  1  0.15845000  0.47210000  0.99320000  1.0
  O2-  O135  1  0.65845000  0.47210000  0.65986667  1.0
  O2-  O136  1  0.65845000  0.47210000  0.32653333  1.0
  O2-  O137  1  0.65845000  0.47210000  0.99320000  1.0
  O2-  O138  1  0.33823700  0.53179505  0.50281190  1.0
  O2-  O139  1  0.34155000  0.52790000  0.17346667  1.0
  O2-  O140  1  0.34155000  0.52790000  0.84013333  1.0
  O2-  O141  1  0.84155000  0.52790000  0.50680000  1.0
  O2-  O142  1  0.84286168  0.52451000  0.17313402  1.0
  O2-  O143  1  0.84155000  0.52790000  0.84013333  1.0
  O2-  O144  1  0.16780000  0.76120000  0.65183333  1.0
  O2-  O145  1  0.16780000  0.76120000  0.31850000  1.0
  O2-  O146  1  0.16780000  0.76120000  0.98516667  1.0
  O2-  O147  1  0.66780000  0.76120000  0.65183333  1.0
  O2-  O148  1  0.66871175  0.76162667  0.31673966  1.0
  O2-  O149  1  0.66904717  0.76200181  0.98815921  1.0
  O2-  O150  1  0.33220000  0.23880000  0.51483333  1.0
  O2-  O151  1  0.33220000  0.23880000  0.18150000  1.0
  O2-  O152  1  0.33220000  0.23880000  0.84816667  1.0
  O2-  O153  1  0.82971320  0.23504320  0.51592717  1.0
  O2-  O154  1  0.83969878  0.24118872  0.18268024  1.0
  O2-  O155  1  0.83220000  0.23880000  0.84816667  1.0
