# generated using pymatgen
data_Li4P2O7
_symmetry_space_group_name_H-M   'P 1'
_cell_length_a   21.25651666
_cell_length_b   10.34062058
_cell_length_c   8.53762217
_cell_angle_alpha   89.99100000
_cell_angle_beta   76.94582097
_cell_angle_gamma   111.36083983
_symmetry_Int_Tables_number   1
_chemical_formula_structural   Li4P2O7
_chemical_formula_sum   'Li48 P24 O84'
_cell_volume   1695.49488946
_cell_formula_units_Z   12
loop_
 _symmetry_equiv_pos_site_id
 _symmetry_equiv_pos_as_xyz
  1  'x, y, z'
loop_
 _atom_type_symbol
 _atom_type_oxidation_number
  Li+  1.0
  P5+  5.0
  O2-  -2.0
loop_
 _atom_site_type_symbol
 _atom_site_label
 _atom_site_symmetry_multiplicity
 _atom_site_fract_x
 _atom_site_fract_y
 _atom_site_fract_z
 _atom_site_occupancy
  Li+  Li0  1  0.88990000  0.17851667  0.21330000  1.0
  Li+  Li1  1  0.55656667  0.17851667  0.21330000  1.0
  Li+  Li2  1  0.22323333  0.17851667  0.21330000  1.0
  Li+  Li3  1  0.88990000  0.67851667  0.21330000  1.0
  Li+  Li4  1  0.55656667  0.67851667  0.21330000  1.0
  Li+  Li5  1  0.22323333  0.67851667  0.21330000  1.0
  Li+  Li6  1  0.77676667  0.65481667  0.78670000  1.0
  Li+  Li7  1  0.44343333  0.65481667  0.78670000  1.0
  Li+  Li8  1  0.11010000  0.65481667  0.78670000  1.0
  Li+  Li9  1  0.77676667  0.15481667  0.78670000  1.0
  Li+  Li10  1  0.44343333  0.15481667  0.78670000  1.0
  Li+  Li11  1  0.11010000  0.15481667  0.78670000  1.0
  Li+  Li12  1  0.91766667  0.19566667  0.54190000  1.0
  Li+  Li13  1  0.58433333  0.19566667  0.54190000  1.0
  Li+  Li14  1  0.25100000  0.19566667  0.54190000  1.0
  Li+  Li15  1  0.91766667  0.69566667  0.54190000  1.0
  Li+  Li16  1  0.58433333  0.69566667  0.54190000  1.0
  Li+  Li17  1  0.25100000  0.69566667  0.54190000  1.0
  Li+  Li18  1  0.74900000  0.63766667  0.45810000  1.0
  Li+  Li19  1  0.41566667  0.63766667  0.45810000  1.0
  Li+  Li20  1  0.08233333  0.63766667  0.45810000  1.0
  Li+  Li21  1  0.74900000  0.13766667  0.45810000  1.0
  Li+  Li22  1  0.41566667  0.13766667  0.45810000  1.0
  Li+  Li23  1  0.08233333  0.13766667  0.45810000  1.0
  Li+  Li24  1  0.80533333  0.36616667  0.24320000  1.0
  Li+  Li25  1  0.47200000  0.36616667  0.24320000  1.0
  Li+  Li26  1  0.13866667  0.36616667  0.24320000  1.0
  Li+  Li27  1  0.80533333  0.86616667  0.24320000  1.0
  Li+  Li28  1  0.47200000  0.86616667  0.24320000  1.0
  Li+  Li29  1  0.13866667  0.86616667  0.24320000  1.0
  Li+  Li30  1  0.86133333  0.46716667  0.75680000  1.0
  Li+  Li31  1  0.52800000  0.46716667  0.75680000  1.0
  Li+  Li32  1  0.19466667  0.46716667  0.75680000  1.0
  Li+  Li33  1  0.86133333  0.96716667  0.75680000  1.0
  Li+  Li34  1  0.52800000  0.96716667  0.75680000  1.0
  Li+  Li35  1  0.19466667  0.96716667  0.75680000  1.0
  Li+  Li36  1  0.95133333  0.53866667  0.01200000  1.0
  Li+  Li37  1  0.61800000  0.53866667  0.01200000  1.0
  Li+  Li38  1  0.28466667  0.53866667  0.01200000  1.0
  Li+  Li39  1  0.95133333  0.03866667  0.01200000  1.0
  Li+  Li40  1  0.61800000  0.03866667  0.01200000  1.0
  Li+  Li41  1  0.28466667  0.03866667  0.01200000  1.0
  Li+  Li42  1  0.71533333  0.29466667  0.98800000  1.0
  Li+  Li43  1  0.38200000  0.29466667  0.98800000  1.0
  Li+  Li44  1  0.04866667  0.29466667  0.98800000  1.0
  Li+  Li45  1  0.71533333  0.79466667  0.98800000  1.0
  Li+  Li46  1  0.38200000  0.79466667  0.98800000  1.0
  Li+  Li47  1  0.04866667  0.79466667  0.98800000  1.0
  P5+  P48  1  0.74053333  0.55846667  0.15360000  1.0
  P5+  P49  1  0.40720000  0.55846667  0.15360000  1.0
  P5+  P50  1  0.07386667  0.55846667  0.15360000  1.0
  P5+  P51  1  0.74053333  0.05846667  0.15360000  1.0
  P5+  P52  1  0.40720000  0.05846667  0.15360000  1.0
  P5+  P53  1  0.07386667  0.05846667  0.15360000  1.0
  P5+  P54  1  0.92613333  0.27486667  0.84640000  1.0
  P5+  P55  1  0.59280000  0.27486667  0.84640000  1.0
  P5+  P56  1  0.25946667  0.27486667  0.84640000  1.0
  P5+  P57  1  0.92613333  0.77486667  0.84640000  1.0
  P5+  P58  1  0.59280000  0.77486667  0.84640000  1.0
  P5+  P59  1  0.25946667  0.77486667  0.84640000  1.0
  P5+  P60  1  0.92833333  0.45416667  0.36840000  1.0
  P5+  P61  1  0.59500000  0.45416667  0.36840000  1.0
  P5+  P62  1  0.26166667  0.45416667  0.36840000  1.0
  P5+  P63  1  0.92833333  0.95416667  0.36840000  1.0
  P5+  P64  1  0.59500000  0.95416667  0.36840000  1.0
  P5+  P65  1  0.26166667  0.95416667  0.36840000  1.0
  P5+  P66  1  0.73833333  0.37916667  0.63160000  1.0
  P5+  P67  1  0.40500000  0.37916667  0.63160000  1.0
  P5+  P68  1  0.07166667  0.37916667  0.63160000  1.0
  P5+  P69  1  0.73833333  0.87916667  0.63160000  1.0
  P5+  P70  1  0.40500000  0.87916667  0.63160000  1.0
  P5+  P71  1  0.07166667  0.87916667  0.63160000  1.0
  O2-  O72  1  0.67953333  0.53111667  0.31470000  1.0
  O2-  O73  1  0.34620000  0.53111667  0.31470000  1.0
  O2-  O74  1  0.01286667  0.53111667  0.31470000  1.0
  O2-  O75  1  0.67953333  0.03111667  0.31470000  1.0
  O2-  O76  1  0.34620000  0.03111667  0.31470000  1.0
  O2-  O77  1  0.01286667  0.03111667  0.31470000  1.0
  O2-  O78  1  0.98713333  0.30221667  0.68530000  1.0
  O2-  O79  1  0.65380000  0.30221667  0.68530000  1.0
  O2-  O80  1  0.32046667  0.30221667  0.68530000  1.0
  O2-  O81  1  0.98713333  0.80221667  0.68530000  1.0
  O2-  O82  1  0.65380000  0.80221667  0.68530000  1.0
  O2-  O83  1  0.32046667  0.80221667  0.68530000  1.0
  O2-  O84  1  0.75316667  0.42501667  0.12550000  1.0
  O2-  O85  1  0.41983333  0.42501667  0.12550000  1.0
  O2-  O86  1  0.08650000  0.42501667  0.12550000  1.0
  O2-  O87  1  0.75316667  0.92501667  0.12550000  1.0
  O2-  O88  1  0.41983333  0.92501667  0.12550000  1.0
  O2-  O89  1  0.08650000  0.92501667  0.12550000  1.0
  O2-  O90  1  0.91350000  0.40831667  0.87450000  1.0
  O2-  O91  1  0.58016667  0.40831667  0.87450000  1.0
  O2-  O92  1  0.24683333  0.40831667  0.87450000  1.0
  O2-  O93  1  0.91350000  0.90831667  0.87450000  1.0
  O2-  O94  1  0.58016667  0.90831667  0.87450000  1.0
  O2-  O95  1  0.24683333  0.90831667  0.87450000  1.0
  O2-  O96  1  0.79876667  0.17066667  0.20740000  1.0
  O2-  O97  1  0.46543333  0.17066667  0.20740000  1.0
  O2-  O98  1  0.13210000  0.17066667  0.20740000  1.0
  O2-  O99  1  0.79876667  0.67066667  0.20740000  1.0
  O2-  O100  1  0.46543333  0.67066667  0.20740000  1.0
  O2-  O101  1  0.13210000  0.67066667  0.20740000  1.0
  O2-  O102  1  0.86790000  0.66266667  0.79260000  1.0
  O2-  O103  1  0.53456667  0.66266667  0.79260000  1.0
  O2-  O104  1  0.20123333  0.66266667  0.79260000  1.0
  O2-  O105  1  0.86790000  0.16266667  0.79260000  1.0
  O2-  O106  1  0.53456667  0.16266667  0.79260000  1.0
  O2-  O107  1  0.20123333  0.16266667  0.79260000  1.0
  O2-  O108  1  0.71710000  0.60616667  0.01890000  1.0
  O2-  O109  1  0.38376667  0.60616667  0.01890000  1.0
  O2-  O110  1  0.05043333  0.60616667  0.01890000  1.0
  O2-  O111  1  0.71710000  0.10616667  0.01890000  1.0
  O2-  O112  1  0.38376667  0.10616667  0.01890000  1.0
  O2-  O113  1  0.05043333  0.10616667  0.01890000  1.0
  O2-  O114  1  0.94956667  0.22716667  0.98110000  1.0
  O2-  O115  1  0.61623333  0.22716667  0.98110000  1.0
  O2-  O116  1  0.28290000  0.22716667  0.98110000  1.0
  O2-  O117  1  0.94956667  0.72716667  0.98110000  1.0
  O2-  O118  1  0.61623333  0.72716667  0.98110000  1.0
  O2-  O119  1  0.28290000  0.72716667  0.98110000  1.0
  O2-  O120  1  0.91270000  0.29831667  0.37930000  1.0
  O2-  O121  1  0.57936667  0.29831667  0.37930000  1.0
  O2-  O122  1  0.24603333  0.29831667  0.37930000  1.0
  O2-  O123  1  0.91270000  0.79831667  0.37930000  1.0
  O2-  O124  1  0.57936667  0.79831667  0.37930000  1.0
  O2-  O125  1  0.24603333  0.79831667  0.37930000  1.0
  O2-  O126  1  0.75396667  0.53501667  0.62070000  1.0
  O2-  O127  1  0.42063333  0.53501667  0.62070000  1.0
  O2-  O128  1  0.08730000  0.53501667  0.62070000  1.0
  O2-  O129  1  0.75396667  0.03501667  0.62070000  1.0
  O2-  O130  1  0.42063333  0.03501667  0.62070000  1.0
  O2-  O131  1  0.08730000  0.03501667  0.62070000  1.0
  O2-  O132  1  0.90986667  0.50821667  0.52790000  1.0
  O2-  O133  1  0.57653333  0.50821667  0.52790000  1.0
  O2-  O134  1  0.24320000  0.50821667  0.52790000  1.0
  O2-  O135  1  0.90986667  0.00821667  0.52790000  1.0
  O2-  O136  1  0.57653333  0.00821667  0.52790000  1.0
  O2-  O137  1  0.24320000  0.00821667  0.52790000  1.0
  O2-  O138  1  0.75680000  0.32511667  0.47210000  1.0
  O2-  O139  1  0.42346667  0.32511667  0.47210000  1.0
  O2-  O140  1  0.09013333  0.32511667  0.47210000  1.0
  O2-  O141  1  0.75680000  0.82511667  0.47210000  1.0
  O2-  O142  1  0.42346667  0.82511667  0.47210000  1.0
  O2-  O143  1  0.09013333  0.82511667  0.47210000  1.0
  O2-  O144  1  0.90183333  0.49886667  0.23880000  1.0
  O2-  O145  1  0.56850000  0.49886667  0.23880000  1.0
  O2-  O146  1  0.23516667  0.49886667  0.23880000  1.0
  O2-  O147  1  0.90183333  0.99886667  0.23880000  1.0
  O2-  O148  1  0.56850000  0.99886667  0.23880000  1.0
  O2-  O149  1  0.23516667  0.99886667  0.23880000  1.0
  O2-  O150  1  0.76483333  0.33446667  0.76120000  1.0
  O2-  O151  1  0.43150000  0.33446667  0.76120000  1.0
  O2-  O152  1  0.09816667  0.33446667  0.76120000  1.0
  O2-  O153  1  0.76483333  0.83446667  0.76120000  1.0
  O2-  O154  1  0.43150000  0.83446667  0.76120000  1.0
  O2-  O155  1  0.09816667  0.83446667  0.76120000  1.0
