# generated using pymatgen
data_Li4P2O7
_symmetry_space_group_name_H-M   'P 1'
_cell_length_a   10.37160000
_cell_length_b   21.32019897
_cell_length_c   8.56320000
_cell_angle_alpha   103.05417903
_cell_angle_beta   90.00900000
_cell_angle_gamma   111.36083983
_symmetry_Int_Tables_number   1
_chemical_formula_structural   Li4P2O7
_chemical_formula_sum   'Li48 P24 O84'
_cell_volume   1710.77916681
_cell_formula_units_Z   12
loop_
 _symmetry_equiv_pos_site_id
 _symmetry_equiv_pos_as_xyz
  1  'x, y, z'
loop_
 _atom_type_symbol
 _atom_type_oxidation_number
  Li+  1.0
  P5+  5.0
  O2-  -2.0
loop_
 _atom_site_type_symbol
 _atom_site_label
 _atom_site_symmetry_multiplicity
 _atom_site_fract_x
 _atom_site_fract_y
 _atom_site_fract_z
 _atom_site_occupancy
  Li+  Li1  1  0.48815000  0.11010000  0.21330000  1.0
  Li+  Li1  1  0.48815000  0.44343333  0.21330000  1.0
  Li+  Li1  1  0.48815000  0.77676667  0.21330000  1.0
  Li+  Li1  1  0.98815000  0.11010000  0.21330000  1.0
  Li+  Li1  1  0.98815000  0.44343333  0.21330000  1.0
  Li+  Li1  1  0.98815000  0.77676667  0.21330000  1.0
  Li+  Li1  1  0.01185000  0.22323333  0.78670000  1.0
  Li+  Li1  1  0.01185000  0.55656667  0.78670000  1.0
  Li+  Li1  1  0.01185000  0.88990000  0.78670000  1.0
  Li+  Li1  1  0.51185000  0.22323333  0.78670000  1.0
  Li+  Li1  1  0.51185000  0.55656667  0.78670000  1.0
  Li+  Li1  1  0.51185000  0.88990000  0.78670000  1.0
  Li+  Li2  1  0.47100000  0.08233333  0.54190000  1.0
  Li+  Li2  1  0.47100000  0.41566667  0.54190000  1.0
  Li+  Li2  1  0.47100000  0.74900000  0.54190000  1.0
  Li+  Li2  1  0.97100000  0.08233333  0.54190000  1.0
  Li+  Li2  1  0.97100000  0.41566667  0.54190000  1.0
  Li+  Li2  1  0.97100000  0.74900000  0.54190000  1.0
  Li+  Li2  1  0.02900000  0.25100000  0.45810000  1.0
  Li+  Li2  1  0.02900000  0.58433333  0.45810000  1.0
  Li+  Li2  1  0.02900000  0.91766667  0.45810000  1.0
  Li+  Li2  1  0.52900000  0.25100000  0.45810000  1.0
  Li+  Li2  1  0.52900000  0.58433333  0.45810000  1.0
  Li+  Li2  1  0.52900000  0.91766667  0.45810000  1.0
  Li+  Li3  1  0.30050000  0.19466667  0.24320000  1.0
  Li+  Li3  1  0.30050000  0.52800000  0.24320000  1.0
  Li+  Li3  1  0.30050000  0.86133333  0.24320000  1.0
  Li+  Li3  1  0.80050000  0.19466667  0.24320000  1.0
  Li+  Li3  1  0.80050000  0.52800000  0.24320000  1.0
  Li+  Li3  1  0.80050000  0.86133333  0.24320000  1.0
  Li+  Li3  1  0.19950000  0.13866667  0.75680000  1.0
  Li+  Li3  1  0.19950000  0.47200000  0.75680000  1.0
  Li+  Li3  1  0.19950000  0.80533333  0.75680000  1.0
  Li+  Li3  1  0.69950000  0.13866667  0.75680000  1.0
  Li+  Li3  1  0.69950000  0.47200000  0.75680000  1.0
  Li+  Li3  1  0.69950000  0.80533333  0.75680000  1.0
  Li+  Li4  1  0.12800000  0.04866667  0.01200000  1.0
  Li+  Li4  1  0.12800000  0.38200000  0.01200000  1.0
  Li+  Li4  1  0.12800000  0.71533333  0.01200000  1.0
  Li+  Li4  1  0.62800000  0.04866667  0.01200000  1.0
  Li+  Li4  1  0.62800000  0.38200000  0.01200000  1.0
  Li+  Li4  1  0.62800000  0.71533333  0.01200000  1.0
  Li+  Li4  1  0.37200000  0.28466667  0.98800000  1.0
  Li+  Li4  1  0.37200000  0.61800000  0.98800000  1.0
  Li+  Li4  1  0.37200000  0.95133333  0.98800000  1.0
  Li+  Li4  1  0.87200000  0.28466667  0.98800000  1.0
  Li+  Li4  1  0.87200000  0.61800000  0.98800000  1.0
  Li+  Li4  1  0.87200000  0.95133333  0.98800000  1.0
  P5+  P1  1  0.10820000  0.25946667  0.15360000  1.0
  P5+  P1  1  0.10820000  0.59280000  0.15360000  1.0
  P5+  P1  1  0.10820000  0.92613333  0.15360000  1.0
  P5+  P1  1  0.60820000  0.25946667  0.15360000  1.0
  P5+  P1  1  0.60820000  0.59280000  0.15360000  1.0
  P5+  P1  1  0.60820000  0.92613333  0.15360000  1.0
  P5+  P1  1  0.39180000  0.07386667  0.84640000  1.0
  P5+  P1  1  0.39180000  0.40720000  0.84640000  1.0
  P5+  P1  1  0.39180000  0.74053333  0.84640000  1.0
  P5+  P1  1  0.89180000  0.07386667  0.84640000  1.0
  P5+  P1  1  0.89180000  0.40720000  0.84640000  1.0
  P5+  P1  1  0.89180000  0.74053333  0.84640000  1.0
  P5+  P2  1  0.21250000  0.07166667  0.36840000  1.0
  P5+  P2  1  0.21250000  0.40500000  0.36840000  1.0
  P5+  P2  1  0.21250000  0.73833333  0.36840000  1.0
  P5+  P2  1  0.71250000  0.07166667  0.36840000  1.0
  P5+  P2  1  0.71250000  0.40500000  0.36840000  1.0
  P5+  P2  1  0.71250000  0.73833333  0.36840000  1.0
  P5+  P2  1  0.28750000  0.26166667  0.63160000  1.0
  P5+  P2  1  0.28750000  0.59500000  0.63160000  1.0
  P5+  P2  1  0.28750000  0.92833333  0.63160000  1.0
  P5+  P2  1  0.78750000  0.26166667  0.63160000  1.0
  P5+  P2  1  0.78750000  0.59500000  0.63160000  1.0
  P5+  P2  1  0.78750000  0.92833333  0.63160000  1.0
  O2-  O1  1  0.13555000  0.32046667  0.31470000  1.0
  O2-  O1  1  0.13555000  0.65380000  0.31470000  1.0
  O2-  O1  1  0.13555000  0.98713333  0.31470000  1.0
  O2-  O1  1  0.63555000  0.32046667  0.31470000  1.0
  O2-  O1  1  0.63555000  0.65380000  0.31470000  1.0
  O2-  O1  1  0.63555000  0.98713333  0.31470000  1.0
  O2-  O1  1  0.36445000  0.01286667  0.68530000  1.0
  O2-  O1  1  0.36445000  0.34620000  0.68530000  1.0
  O2-  O1  1  0.36445000  0.67953333  0.68530000  1.0
  O2-  O1  1  0.86445000  0.01286667  0.68530000  1.0
  O2-  O1  1  0.86445000  0.34620000  0.68530000  1.0
  O2-  O1  1  0.86445000  0.67953333  0.68530000  1.0
  O2-  O2  1  0.24165000  0.24683333  0.12550000  1.0
  O2-  O2  1  0.24165000  0.58016667  0.12550000  1.0
  O2-  O2  1  0.24165000  0.91350000  0.12550000  1.0
  O2-  O2  1  0.74165000  0.24683333  0.12550000  1.0
  O2-  O2  1  0.74165000  0.58016667  0.12550000  1.0
  O2-  O2  1  0.74165000  0.91350000  0.12550000  1.0
  O2-  O2  1  0.25835000  0.08650000  0.87450000  1.0
  O2-  O2  1  0.25835000  0.41983333  0.87450000  1.0
  O2-  O2  1  0.25835000  0.75316667  0.87450000  1.0
  O2-  O2  1  0.75835000  0.08650000  0.87450000  1.0
  O2-  O2  1  0.75835000  0.41983333  0.87450000  1.0
  O2-  O2  1  0.75835000  0.75316667  0.87450000  1.0
  O2-  O3  1  0.49600000  0.20123333  0.20740000  1.0
  O2-  O3  1  0.49600000  0.53456667  0.20740000  1.0
  O2-  O3  1  0.49600000  0.86790000  0.20740000  1.0
  O2-  O3  1  0.99600000  0.20123333  0.20740000  1.0
  O2-  O3  1  0.99600000  0.53456667  0.20740000  1.0
  O2-  O3  1  0.99600000  0.86790000  0.20740000  1.0
  O2-  O3  1  0.00400000  0.13210000  0.79260000  1.0
  O2-  O3  1  0.00400000  0.46543333  0.79260000  1.0
  O2-  O3  1  0.00400000  0.79876667  0.79260000  1.0
  O2-  O3  1  0.50400000  0.13210000  0.79260000  1.0
  O2-  O3  1  0.50400000  0.46543333  0.79260000  1.0
  O2-  O3  1  0.50400000  0.79876667  0.79260000  1.0
  O2-  O4  1  0.06050000  0.28290000  0.01890000  1.0
  O2-  O4  1  0.06050000  0.61623333  0.01890000  1.0
  O2-  O4  1  0.06050000  0.94956667  0.01890000  1.0
  O2-  O4  1  0.56050000  0.28290000  0.01890000  1.0
  O2-  O4  1  0.56050000  0.61623333  0.01890000  1.0
  O2-  O4  1  0.56050000  0.94956667  0.01890000  1.0
  O2-  O4  1  0.43950000  0.05043333  0.98110000  1.0
  O2-  O4  1  0.43950000  0.38376667  0.98110000  1.0
  O2-  O4  1  0.43950000  0.71710000  0.98110000  1.0
  O2-  O4  1  0.93950000  0.05043333  0.98110000  1.0
  O2-  O4  1  0.93950000  0.38376667  0.98110000  1.0
  O2-  O4  1  0.93950000  0.71710000  0.98110000  1.0
  O2-  O5  1  0.36835000  0.08730000  0.37930000  1.0
  O2-  O5  1  0.36835000  0.42063333  0.37930000  1.0
  O2-  O5  1  0.36835000  0.75396667  0.37930000  1.0
  O2-  O5  1  0.86835000  0.08730000  0.37930000  1.0
  O2-  O5  1  0.86835000  0.42063333  0.37930000  1.0
  O2-  O5  1  0.86835000  0.75396667  0.37930000  1.0
  O2-  O5  1  0.13165000  0.24603333  0.62070000  1.0
  O2-  O5  1  0.13165000  0.57936667  0.62070000  1.0
  O2-  O5  1  0.13165000  0.91270000  0.62070000  1.0
  O2-  O5  1  0.63165000  0.24603333  0.62070000  1.0
  O2-  O5  1  0.63165000  0.57936667  0.62070000  1.0
  O2-  O5  1  0.63165000  0.91270000  0.62070000  1.0
  O2-  O6  1  0.15845000  0.09013333  0.52790000  1.0
  O2-  O6  1  0.15845000  0.42346667  0.52790000  1.0
  O2-  O6  1  0.15845000  0.75680000  0.52790000  1.0
  O2-  O6  1  0.65845000  0.09013333  0.52790000  1.0
  O2-  O6  1  0.65845000  0.42346667  0.52790000  1.0
  O2-  O6  1  0.65845000  0.75680000  0.52790000  1.0
  O2-  O6  1  0.34155000  0.24320000  0.47210000  1.0
  O2-  O6  1  0.34155000  0.57653333  0.47210000  1.0
  O2-  O6  1  0.34155000  0.90986667  0.47210000  1.0
  O2-  O6  1  0.84155000  0.24320000  0.47210000  1.0
  O2-  O6  1  0.84155000  0.57653333  0.47210000  1.0
  O2-  O6  1  0.84155000  0.90986667  0.47210000  1.0
  O2-  O7  1  0.16780000  0.09816667  0.23880000  1.0
  O2-  O7  1  0.16780000  0.43150000  0.23880000  1.0
  O2-  O7  1  0.16780000  0.76483333  0.23880000  1.0
  O2-  O7  1  0.66780000  0.09816667  0.23880000  1.0
  O2-  O7  1  0.66780000  0.43150000  0.23880000  1.0
  O2-  O7  1  0.66780000  0.76483333  0.23880000  1.0
  O2-  O7  1  0.33220000  0.23516667  0.76120000  1.0
  O2-  O7  1  0.33220000  0.56850000  0.76120000  1.0
  O2-  O7  1  0.33220000  0.90183333  0.76120000  1.0
  O2-  O7  1  0.83220000  0.23516667  0.76120000  1.0
  O2-  O7  1  0.83220000  0.56850000  0.76120000  1.0
  O2-  O7  1  0.83220000  0.90183333  0.76120000  1.0
