# generated using pymatgen
data_BaLi2P2O7
_symmetry_space_group_name_H-M   'P 1'
_cell_length_a   14.21097104
_cell_length_b   14.01600000
_cell_length_c   14.21097104
_cell_angle_alpha   90.24642919
_cell_angle_beta   60.38692089
_cell_angle_gamma   89.75357081
_symmetry_Int_Tables_number   1
_chemical_formula_structural   BaLi2P2O7
_chemical_formula_sum   'Ba16 Li32 P32 O112'
_cell_volume   2460.74400765
_cell_formula_units_Z   16
loop_
 _symmetry_equiv_pos_site_id
 _symmetry_equiv_pos_as_xyz
  1  'x, y, z'
loop_
 _atom_type_symbol
 _atom_type_oxidation_number
  Ba2+  2.0
  Li+  1.0
  P5+  5.0
  O2-  -2.0
loop_
 _atom_site_type_symbol
 _atom_site_label
 _atom_site_symmetry_multiplicity
 _atom_site_fract_x
 _atom_site_fract_y
 _atom_site_fract_z
 _atom_site_occupancy
  Ba2+  Ba0  1  0.14490000  0.62094000  0.57858000  1.0
  Ba2+  Ba1  1  0.14490000  0.62094000  0.07858000  1.0
  Ba2+  Ba2  1  0.64490000  0.62094000  0.57858000  1.0
  Ba2+  Ba3  1  0.64490000  0.62094000  0.07858000  1.0
  Ba2+  Ba4  1  0.32805961  0.87453992  0.39423645  1.0
  Ba2+  Ba5  1  0.32640534  0.88195515  0.89377563  1.0
  Ba2+  Ba6  1  0.83299150  0.87531624  0.39536871  1.0
  Ba2+  Ba7  1  0.82858000  0.87906000  0.89490000  1.0
  Ba2+  Ba8  1  0.35490361  0.38166211  0.42424852  1.0
  Ba2+  Ba9  1  0.35510000  0.37906000  0.92142000  1.0
  Ba2+  Ba10  1  0.85510000  0.37906000  0.42142000  1.0
  Ba2+  Ba11  1  0.85510000  0.37906000  0.92142000  1.0
  Ba2+  Ba12  1  0.17142000  0.12094000  0.60510000  1.0
  Ba2+  Ba13  1  0.17142000  0.12094000  0.10510000  1.0
  Ba2+  Ba14  1  0.67516322  0.11794271  0.60602784  1.0
  Ba2+  Ba15  1  0.67142000  0.12094000  0.10510000  1.0
  Li+  Li16  1  0.13500000  0.75000000  0.38500000  1.0
  Li+  Li17  1  0.13500000  0.75000000  0.88500000  1.0
  Li+  Li18  1  0.63773172  0.74505035  0.38348439  1.0
  Li+  Li19  1  0.63500000  0.75000000  0.88500000  1.0
  Li+  Li20  1  0.36751786  0.24663701  0.61436889  1.0
  Li+  Li21  1  0.36500000  0.25000000  0.11500000  1.0
  Li+  Li22  1  0.86500000  0.25000000  0.61500000  1.0
  Li+  Li23  1  0.86149528  0.24867991  0.11210529  1.0
  Li+  Li24  1  0.13200000  0.25000000  0.38200000  1.0
  Li+  Li25  1  0.12763660  0.24803949  0.87922338  1.0
  Li+  Li26  1  0.63923865  0.24757704  0.38056588  1.0
  Li+  Li27  1  0.63200000  0.25000000  0.88200000  1.0
  Li+  Li28  1  0.36800000  0.75000000  0.61800000  1.0
  Li+  Li29  1  0.36800000  0.75000000  0.11800000  1.0
  Li+  Li30  1  0.86819720  0.74699144  0.61567174  1.0
  Li+  Li31  1  0.86800000  0.75000000  0.11800000  1.0
  Li+  Li32  1  0.14740000  0.49140000  0.36850000  1.0
  Li+  Li33  1  0.14740000  0.49140000  0.86850000  1.0
  Li+  Li34  1  0.65060232  0.49236914  0.37221922  1.0
  Li+  Li35  1  0.64740000  0.49140000  0.86850000  1.0
  Li+  Li36  1  0.12121447  0.00781356  0.39844821  1.0
  Li+  Li37  1  0.11923249  0.00936765  0.89882521  1.0
  Li+  Li38  1  0.61850000  0.00860000  0.39740000  1.0
  Li+  Li39  1  0.61850000  0.00860000  0.89740000  1.0
  Li+  Li40  1  0.35260000  0.50860000  0.63150000  1.0
  Li+  Li41  1  0.34531657  0.50881620  0.12990754  1.0
  Li+  Li42  1  0.85260000  0.50860000  0.63150000  1.0
  Li+  Li43  1  0.85330435  0.50876923  0.12742546  1.0
  Li+  Li44  1  0.38150000  0.99140000  0.60260000  1.0
  Li+  Li45  1  0.38150000  0.99140000  0.10260000  1.0
  Li+  Li46  1  0.88118196  0.98976919  0.60465485  1.0
  Li+  Li47  1  0.87908113  0.99190794  0.10185210  1.0
  P5+  P48  1  0.35710243  0.61868567  0.28812218  1.0
  P5+  P49  1  0.35875000  0.61960000  0.78755000  1.0
  P5+  P50  1  0.85710111  0.62006625  0.29174111  1.0
  P5+  P51  1  0.85875000  0.61960000  0.78755000  1.0
  P5+  P52  1  0.03755000  0.88040000  0.60875000  1.0
  P5+  P53  1  0.03905515  0.87660740  0.11160345  1.0
  P5+  P54  1  0.53755000  0.88040000  0.60875000  1.0
  P5+  P55  1  0.53755000  0.88040000  0.10875000  1.0
  P5+  P56  1  0.14125000  0.38040000  0.71245000  1.0
  P5+  P57  1  0.14294286  0.38461930  0.21312844  1.0
  P5+  P58  1  0.64125000  0.38040000  0.71245000  1.0
  P5+  P59  1  0.64125000  0.38040000  0.21245000  1.0
  P5+  P60  1  0.46245000  0.11960000  0.39125000  1.0
  P5+  P61  1  0.46245000  0.11960000  0.89125000  1.0
  P5+  P62  1  0.96245000  0.11960000  0.39125000  1.0
  P5+  P63  1  0.96245000  0.11960000  0.89125000  1.0
  P5+  P64  1  0.45425473  0.63348869  0.42578452  1.0
  P5+  P65  1  0.45616000  0.63469000  0.92496000  1.0
  P5+  P66  1  0.95616000  0.63469000  0.42496000  1.0
  P5+  P67  1  0.95616000  0.63469000  0.92496000  1.0
  P5+  P68  1  0.17496000  0.86531000  0.70616000  1.0
  P5+  P69  1  0.17496000  0.86531000  0.20616000  1.0
  P5+  P70  1  0.67496000  0.86531000  0.70616000  1.0
  P5+  P71  1  0.66948391  0.86608558  0.20631599  1.0
  P5+  P72  1  0.04361506  0.36360829  0.57152071  1.0
  P5+  P73  1  0.04384000  0.36531000  0.07504000  1.0
  P5+  P74  1  0.53673223  0.36814585  0.57548844  1.0
  P5+  P75  1  0.54384000  0.36531000  0.07504000  1.0
  P5+  P76  1  0.32592331  0.13528723  0.29482150  1.0
  P5+  P77  1  0.32577561  0.12988906  0.79479849  1.0
  P5+  P78  1  0.82504000  0.13469000  0.29384000  1.0
  P5+  P79  1  0.82504000  0.13469000  0.79384000  1.0
  O2-  O80  1  0.41095000  0.63410000  0.66525000  1.0
  O2-  O81  1  0.41265666  0.63622441  0.16127772  1.0
  O2-  O82  1  0.91095000  0.63410000  0.66525000  1.0
  O2-  O83  1  0.91095000  0.63410000  0.16525000  1.0
  O2-  O84  1  0.41525000  0.86590000  0.66095000  1.0
  O2-  O85  1  0.41525000  0.86590000  0.16095000  1.0
  O2-  O86  1  0.91434741  0.86270597  0.65498467  1.0
  O2-  O87  1  0.91339868  0.86167113  0.15876563  1.0
  O2-  O88  1  0.08905000  0.36590000  0.33475000  1.0
  O2-  O89  1  0.08905000  0.36590000  0.83475000  1.0
  O2-  O90  1  0.58905000  0.36590000  0.33475000  1.0
  O2-  O91  1  0.58905000  0.36590000  0.83475000  1.0
  O2-  O92  1  0.08236017  0.14007990  0.34084044  1.0
  O2-  O93  1  0.08475000  0.13410000  0.83905000  1.0
  O2-  O94  1  0.58475000  0.13410000  0.33905000  1.0
  O2-  O95  1  0.58475000  0.13410000  0.83905000  1.0
  O2-  O96  1  0.30745000  0.52110000  0.31865000  1.0
  O2-  O97  1  0.30745000  0.52110000  0.81865000  1.0
  O2-  O98  1  0.80745000  0.52110000  0.31865000  1.0
  O2-  O99  1  0.80810711  0.52271536  0.81733175  1.0
  O2-  O100  1  0.06865000  0.97890000  0.55745000  1.0
  O2-  O101  1  0.06865000  0.97890000  0.05745000  1.0
  O2-  O102  1  0.56865000  0.97890000  0.55745000  1.0
  O2-  O103  1  0.56865000  0.97890000  0.05745000  1.0
  O2-  O104  1  0.19354487  0.47653142  0.68029196  1.0
  O2-  O105  1  0.19255000  0.47890000  0.18135000  1.0
  O2-  O106  1  0.69255000  0.47890000  0.68135000  1.0
  O2-  O107  1  0.69255000  0.47890000  0.18135000  1.0
  O2-  O108  1  0.43135000  0.02110000  0.44255000  1.0
  O2-  O109  1  0.43135000  0.02110000  0.94255000  1.0
  O2-  O110  1  0.93135000  0.02110000  0.44255000  1.0
  O2-  O111  1  0.93135000  0.02110000  0.94255000  1.0
  O2-  O112  1  0.28064486  0.69851978  0.35847856  1.0
  O2-  O113  1  0.28190000  0.69960000  0.85890000  1.0
  O2-  O114  1  0.78340435  0.69597313  0.36043216  1.0
  O2-  O115  1  0.78190000  0.69960000  0.85890000  1.0
  O2-  O116  1  0.10890000  0.80040000  0.53190000  1.0
  O2-  O117  1  0.10890000  0.80040000  0.03190000  1.0
  O2-  O118  1  0.60890000  0.80040000  0.53190000  1.0
  O2-  O119  1  0.60890000  0.80040000  0.03190000  1.0
  O2-  O120  1  0.21806985  0.30042572  0.63953647  1.0
  O2-  O121  1  0.21810000  0.30040000  0.14110000  1.0
  O2-  O122  1  0.71778000  0.30262686  0.64164019  1.0
  O2-  O123  1  0.71810000  0.30040000  0.14110000  1.0
  O2-  O124  1  0.38917370  0.20371094  0.46802118  1.0
  O2-  O125  1  0.39110000  0.19960000  0.96810000  1.0
  O2-  O126  1  0.89110000  0.19960000  0.46810000  1.0
  O2-  O127  1  0.88834715  0.19974945  0.96579948  1.0
  O2-  O128  1  0.46510000  0.62300000  0.30480000  1.0
  O2-  O129  1  0.46510000  0.62300000  0.80480000  1.0
  O2-  O130  1  0.96510000  0.62300000  0.30480000  1.0
  O2-  O131  1  0.96510000  0.62300000  0.80480000  1.0
  O2-  O132  1  0.05480000  0.87700000  0.71510000  1.0
  O2-  O133  1  0.05480000  0.87700000  0.21510000  1.0
  O2-  O134  1  0.55418713  0.87821795  0.71807945  1.0
  O2-  O135  1  0.55480000  0.87700000  0.21510000  1.0
  O2-  O136  1  0.03205982  0.37882235  0.69353523  1.0
  O2-  O137  1  0.03490000  0.37700000  0.19520000  1.0
  O2-  O138  1  0.53490000  0.37700000  0.69520000  1.0
  O2-  O139  1  0.53490000  0.37700000  0.19520000  1.0
  O2-  O140  1  0.44520000  0.12300000  0.28490000  1.0
  O2-  O141  1  0.44520000  0.12300000  0.78490000  1.0
  O2-  O142  1  0.94520000  0.12300000  0.28490000  1.0
  O2-  O143  1  0.94520000  0.12300000  0.78490000  1.0
  O2-  O144  1  0.06950000  0.61150000  0.40560000  1.0
  O2-  O145  1  0.06950000  0.61150000  0.90560000  1.0
  O2-  O146  1  0.56950000  0.61150000  0.40560000  1.0
  O2-  O147  1  0.56950000  0.61150000  0.90560000  1.0
  O2-  O148  1  0.15560000  0.88850000  0.31950000  1.0
  O2-  O149  1  0.15560000  0.88850000  0.81950000  1.0
  O2-  O150  1  0.65560000  0.88850000  0.31950000  1.0
  O2-  O151  1  0.65560000  0.88850000  0.81950000  1.0
  O2-  O152  1  0.43050000  0.38850000  0.59440000  1.0
  O2-  O153  1  0.43050000  0.38850000  0.09440000  1.0
  O2-  O154  1  0.93050000  0.38850000  0.59440000  1.0
  O2-  O155  1  0.93050000  0.38850000  0.09440000  1.0
  O2-  O156  1  0.34440000  0.11150000  0.68050000  1.0
  O2-  O157  1  0.34724685  0.10586478  0.17810518  1.0
  O2-  O158  1  0.84440000  0.11150000  0.68050000  1.0
  O2-  O159  1  0.84725042  0.10947160  0.17833396  1.0
  O2-  O160  1  0.36790000  0.56470000  0.49530000  1.0
  O2-  O161  1  0.36790000  0.56470000  0.99530000  1.0
  O2-  O162  1  0.86790000  0.56470000  0.49530000  1.0
  O2-  O163  1  0.86790000  0.56470000  0.99530000  1.0
  O2-  O164  1  0.24530000  0.93530000  0.61790000  1.0
  O2-  O165  1  0.24530000  0.93530000  0.11790000  1.0
  O2-  O166  1  0.74530000  0.93530000  0.61790000  1.0
  O2-  O167  1  0.74530000  0.93530000  0.11790000  1.0
  O2-  O168  1  0.13210000  0.43530000  0.50470000  1.0
  O2-  O169  1  0.13210000  0.43530000  0.00470000  1.0
  O2-  O170  1  0.63210000  0.43530000  0.50470000  1.0
  O2-  O171  1  0.63210000  0.43530000  0.00470000  1.0
  O2-  O172  1  0.25470000  0.06470000  0.38210000  1.0
  O2-  O173  1  0.25470000  0.06470000  0.88210000  1.0
  O2-  O174  1  0.75685039  0.06418408  0.38595826  1.0
  O2-  O175  1  0.74933391  0.06036342  0.88155732  1.0
  O2-  O176  1  0.42710000  0.74030000  0.45790000  1.0
  O2-  O177  1  0.42710000  0.74030000  0.95790000  1.0
  O2-  O178  1  0.92710000  0.74030000  0.45790000  1.0
  O2-  O179  1  0.92469431  0.73629308  0.95531051  1.0
  O2-  O180  1  0.20790000  0.75970000  0.67710000  1.0
  O2-  O181  1  0.20790000  0.75970000  0.17710000  1.0
  O2-  O182  1  0.70790000  0.75970000  0.67710000  1.0
  O2-  O183  1  0.70790000  0.75970000  0.17710000  1.0
  O2-  O184  1  0.07290000  0.25970000  0.54210000  1.0
  O2-  O185  1  0.07290000  0.25970000  0.04210000  1.0
  O2-  O186  1  0.57290000  0.25970000  0.54210000  1.0
  O2-  O187  1  0.57290000  0.25970000  0.04210000  1.0
  O2-  O188  1  0.29530504  0.24108352  0.31971744  1.0
  O2-  O189  1  0.29210000  0.24030000  0.82290000  1.0
  O2-  O190  1  0.79210000  0.24030000  0.32290000  1.0
  O2-  O191  1  0.79210000  0.24030000  0.82290000  1.0
