# generated using pymatgen
data_BaLi2P2O7
_symmetry_space_group_name_H-M   'P 1'
_cell_length_a   14.07827558
_cell_length_b   14.07827558
_cell_length_c   13.88512509
_cell_angle_alpha   89.75357081
_cell_angle_beta   89.75357081
_cell_angle_gamma   119.61307911
_symmetry_Int_Tables_number   1
_chemical_formula_structural   BaLi2P2O7
_chemical_formula_sum   'Ba16 Li32 P32 O112'
_cell_volume   2392.45379761
_cell_formula_units_Z   16
loop_
 _symmetry_equiv_pos_site_id
 _symmetry_equiv_pos_as_xyz
  1  'x, y, z'
loop_
 _atom_type_symbol
 _atom_type_oxidation_number
  Ba2+  2.0
  Li+  1.0
  P5+  5.0
  O2-  -2.0
loop_
 _atom_site_type_symbol
 _atom_site_label
 _atom_site_symmetry_multiplicity
 _atom_site_fract_x
 _atom_site_fract_y
 _atom_site_fract_z
 _atom_site_occupancy
  Ba2+  Ba0  1  0.82858000  0.52176667  0.37906000  1.0
  Ba2+  Ba1  1  0.32858000  0.52176667  0.37906000  1.0
  Ba2+  Ba2  1  0.82858000  0.02176667  0.37906000  1.0
  Ba2+  Ba3  1  0.32858000  0.02176667  0.37906000  1.0
  Ba2+  Ba4  1  0.64490000  0.33808667  0.12094000  1.0
  Ba2+  Ba5  1  0.14490000  0.33808667  0.12094000  1.0
  Ba2+  Ba6  1  0.64490000  0.83808667  0.12094000  1.0
  Ba2+  Ba7  1  0.14490000  0.83808667  0.12094000  1.0
  Ba2+  Ba8  1  0.67142000  0.31156667  0.62094000  1.0
  Ba2+  Ba9  1  0.17142000  0.31156667  0.62094000  1.0
  Ba2+  Ba10  1  0.67142000  0.81156667  0.62094000  1.0
  Ba2+  Ba11  1  0.17142000  0.81156667  0.62094000  1.0
  Ba2+  Ba12  1  0.85510000  0.49524667  0.87906000  1.0
  Ba2+  Ba13  1  0.35510000  0.49524667  0.87906000  1.0
  Ba2+  Ba14  1  0.85510000  0.99524667  0.87906000  1.0
  Ba2+  Ba15  1  0.35510000  0.99524667  0.87906000  1.0
  Li+  Li16  1  0.63500000  0.53166667  0.25000000  1.0
  Li+  Li17  1  0.13500000  0.53166667  0.25000000  1.0
  Li+  Li18  1  0.63500000  0.03166667  0.25000000  1.0
  Li+  Li19  1  0.13500000  0.03166667  0.25000000  1.0
  Li+  Li20  1  0.86500000  0.30166667  0.75000000  1.0
  Li+  Li21  1  0.36500000  0.30166667  0.75000000  1.0
  Li+  Li22  1  0.86500000  0.80166667  0.75000000  1.0
  Li+  Li23  1  0.36500000  0.80166667  0.75000000  1.0
  Li+  Li24  1  0.63200000  0.53466667  0.75000000  1.0
  Li+  Li25  1  0.13200000  0.53466667  0.75000000  1.0
  Li+  Li26  1  0.63200000  0.03466667  0.75000000  1.0
  Li+  Li27  1  0.13200000  0.03466667  0.75000000  1.0
  Li+  Li28  1  0.86800000  0.29866667  0.25000000  1.0
  Li+  Li29  1  0.36800000  0.29866667  0.25000000  1.0
  Li+  Li30  1  0.86800000  0.79866667  0.25000000  1.0
  Li+  Li31  1  0.36800000  0.79866667  0.25000000  1.0
  Li+  Li32  1  0.61850000  0.51926667  0.50860000  1.0
  Li+  Li33  1  0.11850000  0.51926667  0.50860000  1.0
  Li+  Li34  1  0.61850000  0.01926667  0.50860000  1.0
  Li+  Li35  1  0.11850000  0.01926667  0.50860000  1.0
  Li+  Li36  1  0.64740000  0.54816667  0.99140000  1.0
  Li+  Li37  1  0.14740000  0.54816667  0.99140000  1.0
  Li+  Li38  1  0.64740000  0.04816667  0.99140000  1.0
  Li+  Li39  1  0.14740000  0.04816667  0.99140000  1.0
  Li+  Li40  1  0.88150000  0.31406667  0.49140000  1.0
  Li+  Li41  1  0.38150000  0.31406667  0.49140000  1.0
  Li+  Li42  1  0.88150000  0.81406667  0.49140000  1.0
  Li+  Li43  1  0.38150000  0.81406667  0.49140000  1.0
  Li+  Li44  1  0.85260000  0.28516667  0.00860000  1.0
  Li+  Li45  1  0.35260000  0.28516667  0.00860000  1.0
  Li+  Li46  1  0.85260000  0.78516667  0.00860000  1.0
  Li+  Li47  1  0.35260000  0.78516667  0.00860000  1.0
  P5+  P48  1  0.53755000  0.30791667  0.38040000  1.0
  P5+  P49  1  0.03755000  0.30791667  0.38040000  1.0
  P5+  P50  1  0.53755000  0.80791667  0.38040000  1.0
  P5+  P51  1  0.03755000  0.80791667  0.38040000  1.0
  P5+  P52  1  0.85875000  0.62911667  0.11960000  1.0
  P5+  P53  1  0.35875000  0.62911667  0.11960000  1.0
  P5+  P54  1  0.85875000  0.12911667  0.11960000  1.0
  P5+  P55  1  0.35875000  0.12911667  0.11960000  1.0
  P5+  P56  1  0.96245000  0.52541667  0.61960000  1.0
  P5+  P57  1  0.46245000  0.52541667  0.61960000  1.0
  P5+  P58  1  0.96245000  0.02541667  0.61960000  1.0
  P5+  P59  1  0.46245000  0.02541667  0.61960000  1.0
  P5+  P60  1  0.64125000  0.20421667  0.88040000  1.0
  P5+  P61  1  0.14125000  0.20421667  0.88040000  1.0
  P5+  P62  1  0.64125000  0.70421667  0.88040000  1.0
  P5+  P63  1  0.14125000  0.70421667  0.88040000  1.0
  P5+  P64  1  0.67496000  0.21050667  0.36531000  1.0
  P5+  P65  1  0.17496000  0.21050667  0.36531000  1.0
  P5+  P66  1  0.67496000  0.71050667  0.36531000  1.0
  P5+  P67  1  0.17496000  0.71050667  0.36531000  1.0
  P5+  P68  1  0.95616000  0.49170667  0.13469000  1.0
  P5+  P69  1  0.45616000  0.49170667  0.13469000  1.0
  P5+  P70  1  0.95616000  0.99170667  0.13469000  1.0
  P5+  P71  1  0.45616000  0.99170667  0.13469000  1.0
  P5+  P72  1  0.82504000  0.62282667  0.63469000  1.0
  P5+  P73  1  0.32504000  0.62282667  0.63469000  1.0
  P5+  P74  1  0.82504000  0.12282667  0.63469000  1.0
  P5+  P75  1  0.32504000  0.12282667  0.63469000  1.0
  P5+  P76  1  0.54384000  0.34162667  0.86531000  1.0
  P5+  P77  1  0.04384000  0.34162667  0.86531000  1.0
  P5+  P78  1  0.54384000  0.84162667  0.86531000  1.0
  P5+  P79  1  0.04384000  0.84162667  0.86531000  1.0
  O2-  O80  1  0.91525000  0.25571667  0.36590000  1.0
  O2-  O81  1  0.41525000  0.25571667  0.36590000  1.0
  O2-  O82  1  0.91525000  0.75571667  0.36590000  1.0
  O2-  O83  1  0.41525000  0.75571667  0.36590000  1.0
  O2-  O84  1  0.91095000  0.25141667  0.13410000  1.0
  O2-  O85  1  0.41095000  0.25141667  0.13410000  1.0
  O2-  O86  1  0.91095000  0.75141667  0.13410000  1.0
  O2-  O87  1  0.41095000  0.75141667  0.13410000  1.0
  O2-  O88  1  0.58475000  0.57761667  0.63410000  1.0
  O2-  O89  1  0.08475000  0.57761667  0.63410000  1.0
  O2-  O90  1  0.58475000  0.07761667  0.63410000  1.0
  O2-  O91  1  0.08475000  0.07761667  0.63410000  1.0
  O2-  O92  1  0.58905000  0.58191667  0.86590000  1.0
  O2-  O93  1  0.08905000  0.58191667  0.86590000  1.0
  O2-  O94  1  0.58905000  0.08191667  0.86590000  1.0
  O2-  O95  1  0.08905000  0.08191667  0.86590000  1.0
  O2-  O96  1  0.56865000  0.35921667  0.47890000  1.0
  O2-  O97  1  0.06865000  0.35921667  0.47890000  1.0
  O2-  O98  1  0.56865000  0.85921667  0.47890000  1.0
  O2-  O99  1  0.06865000  0.85921667  0.47890000  1.0
  O2-  O100  1  0.80745000  0.59801667  0.02110000  1.0
  O2-  O101  1  0.30745000  0.59801667  0.02110000  1.0
  O2-  O102  1  0.80745000  0.09801667  0.02110000  1.0
  O2-  O103  1  0.30745000  0.09801667  0.02110000  1.0
  O2-  O104  1  0.93135000  0.47411667  0.52110000  1.0
  O2-  O105  1  0.43135000  0.47411667  0.52110000  1.0
  O2-  O106  1  0.93135000  0.97411667  0.52110000  1.0
  O2-  O107  1  0.43135000  0.97411667  0.52110000  1.0
  O2-  O108  1  0.69255000  0.23531667  0.97890000  1.0
  O2-  O109  1  0.19255000  0.23531667  0.97890000  1.0
  O2-  O110  1  0.69255000  0.73531667  0.97890000  1.0
  O2-  O111  1  0.19255000  0.73531667  0.97890000  1.0
  O2-  O112  1  0.60890000  0.38476667  0.30040000  1.0
  O2-  O113  1  0.10890000  0.38476667  0.30040000  1.0
  O2-  O114  1  0.60890000  0.88476667  0.30040000  1.0
  O2-  O115  1  0.10890000  0.88476667  0.30040000  1.0
  O2-  O116  1  0.78190000  0.55776667  0.19960000  1.0
  O2-  O117  1  0.28190000  0.55776667  0.19960000  1.0
  O2-  O118  1  0.78190000  0.05776667  0.19960000  1.0
  O2-  O119  1  0.28190000  0.05776667  0.19960000  1.0
  O2-  O120  1  0.89110000  0.44856667  0.69960000  1.0
  O2-  O121  1  0.39110000  0.44856667  0.69960000  1.0
  O2-  O122  1  0.89110000  0.94856667  0.69960000  1.0
  O2-  O123  1  0.39110000  0.94856667  0.69960000  1.0
  O2-  O124  1  0.71810000  0.27556667  0.80040000  1.0
  O2-  O125  1  0.21810000  0.27556667  0.80040000  1.0
  O2-  O126  1  0.71810000  0.77556667  0.80040000  1.0
  O2-  O127  1  0.21810000  0.77556667  0.80040000  1.0
  O2-  O128  1  0.55480000  0.20156667  0.37700000  1.0
  O2-  O129  1  0.05480000  0.20156667  0.37700000  1.0
  O2-  O130  1  0.55480000  0.70156667  0.37700000  1.0
  O2-  O131  1  0.05480000  0.70156667  0.37700000  1.0
  O2-  O132  1  0.96510000  0.61186667  0.12300000  1.0
  O2-  O133  1  0.46510000  0.61186667  0.12300000  1.0
  O2-  O134  1  0.96510000  0.11186667  0.12300000  1.0
  O2-  O135  1  0.46510000  0.11186667  0.12300000  1.0
  O2-  O136  1  0.94520000  0.63176667  0.62300000  1.0
  O2-  O137  1  0.44520000  0.63176667  0.62300000  1.0
  O2-  O138  1  0.94520000  0.13176667  0.62300000  1.0
  O2-  O139  1  0.44520000  0.13176667  0.62300000  1.0
  O2-  O140  1  0.53490000  0.22146667  0.87700000  1.0
  O2-  O141  1  0.03490000  0.22146667  0.87700000  1.0
  O2-  O142  1  0.53490000  0.72146667  0.87700000  1.0
  O2-  O143  1  0.03490000  0.72146667  0.87700000  1.0
  O2-  O144  1  0.65560000  0.59716667  0.38850000  1.0
  O2-  O145  1  0.15560000  0.59716667  0.38850000  1.0
  O2-  O146  1  0.65560000  0.09716667  0.38850000  1.0
  O2-  O147  1  0.15560000  0.09716667  0.38850000  1.0
  O2-  O148  1  0.56950000  0.51106667  0.11150000  1.0
  O2-  O149  1  0.06950000  0.51106667  0.11150000  1.0
  O2-  O150  1  0.56950000  0.01106667  0.11150000  1.0
  O2-  O151  1  0.06950000  0.01106667  0.11150000  1.0
  O2-  O152  1  0.84440000  0.23616667  0.61150000  1.0
  O2-  O153  1  0.34440000  0.23616667  0.61150000  1.0
  O2-  O154  1  0.84440000  0.73616667  0.61150000  1.0
  O2-  O155  1  0.34440000  0.73616667  0.61150000  1.0
  O2-  O156  1  0.93050000  0.32226667  0.88850000  1.0
  O2-  O157  1  0.43050000  0.32226667  0.88850000  1.0
  O2-  O158  1  0.93050000  0.82226667  0.88850000  1.0
  O2-  O159  1  0.43050000  0.82226667  0.88850000  1.0
  O2-  O160  1  0.74530000  0.29876667  0.43530000  1.0
  O2-  O161  1  0.24530000  0.29876667  0.43530000  1.0
  O2-  O162  1  0.74530000  0.79876667  0.43530000  1.0
  O2-  O163  1  0.24530000  0.79876667  0.43530000  1.0
  O2-  O164  1  0.86790000  0.42136667  0.06470000  1.0
  O2-  O165  1  0.36790000  0.42136667  0.06470000  1.0
  O2-  O166  1  0.86790000  0.92136667  0.06470000  1.0
  O2-  O167  1  0.36790000  0.92136667  0.06470000  1.0
  O2-  O168  1  0.75470000  0.53456667  0.56470000  1.0
  O2-  O169  1  0.25470000  0.53456667  0.56470000  1.0
  O2-  O170  1  0.75470000  0.03456667  0.56470000  1.0
  O2-  O171  1  0.25470000  0.03456667  0.56470000  1.0
  O2-  O172  1  0.63210000  0.41196667  0.93530000  1.0
  O2-  O173  1  0.13210000  0.41196667  0.93530000  1.0
  O2-  O174  1  0.63210000  0.91196667  0.93530000  1.0
  O2-  O175  1  0.13210000  0.91196667  0.93530000  1.0
  O2-  O176  1  0.70790000  0.23956667  0.25970000  1.0
  O2-  O177  1  0.20790000  0.23956667  0.25970000  1.0
  O2-  O178  1  0.70790000  0.73956667  0.25970000  1.0
  O2-  O179  1  0.20790000  0.73956667  0.25970000  1.0
  O2-  O180  1  0.92710000  0.45876667  0.24030000  1.0
  O2-  O181  1  0.42710000  0.45876667  0.24030000  1.0
  O2-  O182  1  0.92710000  0.95876667  0.24030000  1.0
  O2-  O183  1  0.42710000  0.95876667  0.24030000  1.0
  O2-  O184  1  0.79210000  0.59376667  0.74030000  1.0
  O2-  O185  1  0.29210000  0.59376667  0.74030000  1.0
  O2-  O186  1  0.79210000  0.09376667  0.74030000  1.0
  O2-  O187  1  0.29210000  0.09376667  0.74030000  1.0
  O2-  O188  1  0.57290000  0.37456667  0.75970000  1.0
  O2-  O189  1  0.07290000  0.37456667  0.75970000  1.0
  O2-  O190  1  0.57290000  0.87456667  0.75970000  1.0
  O2-  O191  1  0.07290000  0.87456667  0.75970000  1.0
