# generated using pymatgen
data_BaLi2P2O7
_symmetry_space_group_name_H-M   'P 1'
_cell_length_a   14.21097104
_cell_length_b   14.21097104
_cell_length_c   14.01600000
_cell_angle_alpha   90.24642919
_cell_angle_beta   90.24642919
_cell_angle_gamma   119.61307911
_symmetry_Int_Tables_number   1
_chemical_formula_structural   BaLi2P2O7
_chemical_formula_sum   'Ba16 Li32 P32 O112'
_cell_volume   2460.74400765
_cell_formula_units_Z   16
loop_
 _symmetry_equiv_pos_site_id
 _symmetry_equiv_pos_as_xyz
  1  'x, y, z'
loop_
 _atom_type_symbol
 _atom_type_oxidation_number
  Ba2+  2.0
  Li+  1.0
  P5+  5.0
  O2-  -2.0
loop_
 _atom_site_type_symbol
 _atom_site_label
 _atom_site_symmetry_multiplicity
 _atom_site_fract_x
 _atom_site_fract_y
 _atom_site_fract_z
 _atom_site_occupancy
  Ba2+  Ba1  1  0.14490000  0.17142000  0.37906000  1.0
  Ba2+  Ba1  1  0.14490000  0.67142000  0.37906000  1.0
  Ba2+  Ba1  1  0.64490000  0.17142000  0.37906000  1.0
  Ba2+  Ba1  1  0.64490000  0.67142000  0.37906000  1.0
  Ba2+  Ba1  1  0.32858000  0.35510000  0.12094000  1.0
  Ba2+  Ba1  1  0.32858000  0.85510000  0.12094000  1.0
  Ba2+  Ba1  1  0.82858000  0.35510000  0.12094000  1.0
  Ba2+  Ba1  1  0.82858000  0.85510000  0.12094000  1.0
  Ba2+  Ba1  1  0.35510000  0.32858000  0.62094000  1.0
  Ba2+  Ba1  1  0.35510000  0.82858000  0.62094000  1.0
  Ba2+  Ba1  1  0.85510000  0.32858000  0.62094000  1.0
  Ba2+  Ba1  1  0.85510000  0.82858000  0.62094000  1.0
  Ba2+  Ba1  1  0.17142000  0.14490000  0.87906000  1.0
  Ba2+  Ba1  1  0.17142000  0.64490000  0.87906000  1.0
  Ba2+  Ba1  1  0.67142000  0.14490000  0.87906000  1.0
  Ba2+  Ba1  1  0.67142000  0.64490000  0.87906000  1.0
  Li+  Li1  1  0.13500000  0.36500000  0.25000000  1.0
  Li+  Li1  1  0.13500000  0.86500000  0.25000000  1.0
  Li+  Li1  1  0.63500000  0.36500000  0.25000000  1.0
  Li+  Li1  1  0.63500000  0.86500000  0.25000000  1.0
  Li+  Li1  1  0.36500000  0.13500000  0.75000000  1.0
  Li+  Li1  1  0.36500000  0.63500000  0.75000000  1.0
  Li+  Li1  1  0.86500000  0.13500000  0.75000000  1.0
  Li+  Li1  1  0.86500000  0.63500000  0.75000000  1.0
  Li+  Li2  1  0.13200000  0.36800000  0.75000000  1.0
  Li+  Li2  1  0.13200000  0.86800000  0.75000000  1.0
  Li+  Li2  1  0.63200000  0.36800000  0.75000000  1.0
  Li+  Li2  1  0.63200000  0.86800000  0.75000000  1.0
  Li+  Li2  1  0.36800000  0.13200000  0.25000000  1.0
  Li+  Li2  1  0.36800000  0.63200000  0.25000000  1.0
  Li+  Li2  1  0.86800000  0.13200000  0.25000000  1.0
  Li+  Li2  1  0.86800000  0.63200000  0.25000000  1.0
  Li+  Li3  1  0.14740000  0.38150000  0.50860000  1.0
  Li+  Li3  1  0.14740000  0.88150000  0.50860000  1.0
  Li+  Li3  1  0.64740000  0.38150000  0.50860000  1.0
  Li+  Li3  1  0.64740000  0.88150000  0.50860000  1.0
  Li+  Li3  1  0.11850000  0.35260000  0.99140000  1.0
  Li+  Li3  1  0.11850000  0.85260000  0.99140000  1.0
  Li+  Li3  1  0.61850000  0.35260000  0.99140000  1.0
  Li+  Li3  1  0.61850000  0.85260000  0.99140000  1.0
  Li+  Li3  1  0.35260000  0.11850000  0.49140000  1.0
  Li+  Li3  1  0.35260000  0.61850000  0.49140000  1.0
  Li+  Li3  1  0.85260000  0.11850000  0.49140000  1.0
  Li+  Li3  1  0.85260000  0.61850000  0.49140000  1.0
  Li+  Li3  1  0.38150000  0.14740000  0.00860000  1.0
  Li+  Li3  1  0.38150000  0.64740000  0.00860000  1.0
  Li+  Li3  1  0.88150000  0.14740000  0.00860000  1.0
  Li+  Li3  1  0.88150000  0.64740000  0.00860000  1.0
  P5+  P1  1  0.35875000  0.46245000  0.38040000  1.0
  P5+  P1  1  0.35875000  0.96245000  0.38040000  1.0
  P5+  P1  1  0.85875000  0.46245000  0.38040000  1.0
  P5+  P1  1  0.85875000  0.96245000  0.38040000  1.0
  P5+  P1  1  0.03755000  0.14125000  0.11960000  1.0
  P5+  P1  1  0.03755000  0.64125000  0.11960000  1.0
  P5+  P1  1  0.53755000  0.14125000  0.11960000  1.0
  P5+  P1  1  0.53755000  0.64125000  0.11960000  1.0
  P5+  P1  1  0.14125000  0.03755000  0.61960000  1.0
  P5+  P1  1  0.14125000  0.53755000  0.61960000  1.0
  P5+  P1  1  0.64125000  0.03755000  0.61960000  1.0
  P5+  P1  1  0.64125000  0.53755000  0.61960000  1.0
  P5+  P1  1  0.46245000  0.35875000  0.88040000  1.0
  P5+  P1  1  0.46245000  0.85875000  0.88040000  1.0
  P5+  P1  1  0.96245000  0.35875000  0.88040000  1.0
  P5+  P1  1  0.96245000  0.85875000  0.88040000  1.0
  P5+  P2  1  0.45616000  0.32504000  0.36531000  1.0
  P5+  P2  1  0.45616000  0.82504000  0.36531000  1.0
  P5+  P2  1  0.95616000  0.32504000  0.36531000  1.0
  P5+  P2  1  0.95616000  0.82504000  0.36531000  1.0
  P5+  P2  1  0.17496000  0.04384000  0.13469000  1.0
  P5+  P2  1  0.17496000  0.54384000  0.13469000  1.0
  P5+  P2  1  0.67496000  0.04384000  0.13469000  1.0
  P5+  P2  1  0.67496000  0.54384000  0.13469000  1.0
  P5+  P2  1  0.04384000  0.17496000  0.63469000  1.0
  P5+  P2  1  0.04384000  0.67496000  0.63469000  1.0
  P5+  P2  1  0.54384000  0.17496000  0.63469000  1.0
  P5+  P2  1  0.54384000  0.67496000  0.63469000  1.0
  P5+  P2  1  0.32504000  0.45616000  0.86531000  1.0
  P5+  P2  1  0.32504000  0.95616000  0.86531000  1.0
  P5+  P2  1  0.82504000  0.45616000  0.86531000  1.0
  P5+  P2  1  0.82504000  0.95616000  0.86531000  1.0
  O2-  O1  1  0.41095000  0.08475000  0.36590000  1.0
  O2-  O1  1  0.41095000  0.58475000  0.36590000  1.0
  O2-  O1  1  0.91095000  0.08475000  0.36590000  1.0
  O2-  O1  1  0.91095000  0.58475000  0.36590000  1.0
  O2-  O1  1  0.41525000  0.08905000  0.13410000  1.0
  O2-  O1  1  0.41525000  0.58905000  0.13410000  1.0
  O2-  O1  1  0.91525000  0.08905000  0.13410000  1.0
  O2-  O1  1  0.91525000  0.58905000  0.13410000  1.0
  O2-  O1  1  0.08905000  0.41525000  0.63410000  1.0
  O2-  O1  1  0.08905000  0.91525000  0.63410000  1.0
  O2-  O1  1  0.58905000  0.41525000  0.63410000  1.0
  O2-  O1  1  0.58905000  0.91525000  0.63410000  1.0
  O2-  O1  1  0.08475000  0.41095000  0.86590000  1.0
  O2-  O1  1  0.08475000  0.91095000  0.86590000  1.0
  O2-  O1  1  0.58475000  0.41095000  0.86590000  1.0
  O2-  O1  1  0.58475000  0.91095000  0.86590000  1.0
  O2-  O2  1  0.30745000  0.43135000  0.47890000  1.0
  O2-  O2  1  0.30745000  0.93135000  0.47890000  1.0
  O2-  O2  1  0.80745000  0.43135000  0.47890000  1.0
  O2-  O2  1  0.80745000  0.93135000  0.47890000  1.0
  O2-  O2  1  0.06865000  0.19255000  0.02110000  1.0
  O2-  O2  1  0.06865000  0.69255000  0.02110000  1.0
  O2-  O2  1  0.56865000  0.19255000  0.02110000  1.0
  O2-  O2  1  0.56865000  0.69255000  0.02110000  1.0
  O2-  O2  1  0.19255000  0.06865000  0.52110000  1.0
  O2-  O2  1  0.19255000  0.56865000  0.52110000  1.0
  O2-  O2  1  0.69255000  0.06865000  0.52110000  1.0
  O2-  O2  1  0.69255000  0.56865000  0.52110000  1.0
  O2-  O2  1  0.43135000  0.30745000  0.97890000  1.0
  O2-  O2  1  0.43135000  0.80745000  0.97890000  1.0
  O2-  O2  1  0.93135000  0.30745000  0.97890000  1.0
  O2-  O2  1  0.93135000  0.80745000  0.97890000  1.0
  O2-  O3  1  0.28190000  0.39110000  0.30040000  1.0
  O2-  O3  1  0.28190000  0.89110000  0.30040000  1.0
  O2-  O3  1  0.78190000  0.39110000  0.30040000  1.0
  O2-  O3  1  0.78190000  0.89110000  0.30040000  1.0
  O2-  O3  1  0.10890000  0.21810000  0.19960000  1.0
  O2-  O3  1  0.10890000  0.71810000  0.19960000  1.0
  O2-  O3  1  0.60890000  0.21810000  0.19960000  1.0
  O2-  O3  1  0.60890000  0.71810000  0.19960000  1.0
  O2-  O3  1  0.21810000  0.10890000  0.69960000  1.0
  O2-  O3  1  0.21810000  0.60890000  0.69960000  1.0
  O2-  O3  1  0.71810000  0.10890000  0.69960000  1.0
  O2-  O3  1  0.71810000  0.60890000  0.69960000  1.0
  O2-  O3  1  0.39110000  0.28190000  0.80040000  1.0
  O2-  O3  1  0.39110000  0.78190000  0.80040000  1.0
  O2-  O3  1  0.89110000  0.28190000  0.80040000  1.0
  O2-  O3  1  0.89110000  0.78190000  0.80040000  1.0
  O2-  O4  1  0.46510000  0.44520000  0.37700000  1.0
  O2-  O4  1  0.46510000  0.94520000  0.37700000  1.0
  O2-  O4  1  0.96510000  0.44520000  0.37700000  1.0
  O2-  O4  1  0.96510000  0.94520000  0.37700000  1.0
  O2-  O4  1  0.05480000  0.03490000  0.12300000  1.0
  O2-  O4  1  0.05480000  0.53490000  0.12300000  1.0
  O2-  O4  1  0.55480000  0.03490000  0.12300000  1.0
  O2-  O4  1  0.55480000  0.53490000  0.12300000  1.0
  O2-  O4  1  0.03490000  0.05480000  0.62300000  1.0
  O2-  O4  1  0.03490000  0.55480000  0.62300000  1.0
  O2-  O4  1  0.53490000  0.05480000  0.62300000  1.0
  O2-  O4  1  0.53490000  0.55480000  0.62300000  1.0
  O2-  O4  1  0.44520000  0.46510000  0.87700000  1.0
  O2-  O4  1  0.44520000  0.96510000  0.87700000  1.0
  O2-  O4  1  0.94520000  0.46510000  0.87700000  1.0
  O2-  O4  1  0.94520000  0.96510000  0.87700000  1.0
  O2-  O5  1  0.06950000  0.34440000  0.38850000  1.0
  O2-  O5  1  0.06950000  0.84440000  0.38850000  1.0
  O2-  O5  1  0.56950000  0.34440000  0.38850000  1.0
  O2-  O5  1  0.56950000  0.84440000  0.38850000  1.0
  O2-  O5  1  0.15560000  0.43050000  0.11150000  1.0
  O2-  O5  1  0.15560000  0.93050000  0.11150000  1.0
  O2-  O5  1  0.65560000  0.43050000  0.11150000  1.0
  O2-  O5  1  0.65560000  0.93050000  0.11150000  1.0
  O2-  O5  1  0.43050000  0.15560000  0.61150000  1.0
  O2-  O5  1  0.43050000  0.65560000  0.61150000  1.0
  O2-  O5  1  0.93050000  0.15560000  0.61150000  1.0
  O2-  O5  1  0.93050000  0.65560000  0.61150000  1.0
  O2-  O5  1  0.34440000  0.06950000  0.88850000  1.0
  O2-  O5  1  0.34440000  0.56950000  0.88850000  1.0
  O2-  O5  1  0.84440000  0.06950000  0.88850000  1.0
  O2-  O5  1  0.84440000  0.56950000  0.88850000  1.0
  O2-  O6  1  0.36790000  0.25470000  0.43530000  1.0
  O2-  O6  1  0.36790000  0.75470000  0.43530000  1.0
  O2-  O6  1  0.86790000  0.25470000  0.43530000  1.0
  O2-  O6  1  0.86790000  0.75470000  0.43530000  1.0
  O2-  O6  1  0.24530000  0.13210000  0.06470000  1.0
  O2-  O6  1  0.24530000  0.63210000  0.06470000  1.0
  O2-  O6  1  0.74530000  0.13210000  0.06470000  1.0
  O2-  O6  1  0.74530000  0.63210000  0.06470000  1.0
  O2-  O6  1  0.13210000  0.24530000  0.56470000  1.0
  O2-  O6  1  0.13210000  0.74530000  0.56470000  1.0
  O2-  O6  1  0.63210000  0.24530000  0.56470000  1.0
  O2-  O6  1  0.63210000  0.74530000  0.56470000  1.0
  O2-  O6  1  0.25470000  0.36790000  0.93530000  1.0
  O2-  O6  1  0.25470000  0.86790000  0.93530000  1.0
  O2-  O6  1  0.75470000  0.36790000  0.93530000  1.0
  O2-  O6  1  0.75470000  0.86790000  0.93530000  1.0
  O2-  O7  1  0.42710000  0.29210000  0.25970000  1.0
  O2-  O7  1  0.42710000  0.79210000  0.25970000  1.0
  O2-  O7  1  0.92710000  0.29210000  0.25970000  1.0
  O2-  O7  1  0.92710000  0.79210000  0.25970000  1.0
  O2-  O7  1  0.20790000  0.07290000  0.24030000  1.0
  O2-  O7  1  0.20790000  0.57290000  0.24030000  1.0
  O2-  O7  1  0.70790000  0.07290000  0.24030000  1.0
  O2-  O7  1  0.70790000  0.57290000  0.24030000  1.0
  O2-  O7  1  0.07290000  0.20790000  0.74030000  1.0
  O2-  O7  1  0.07290000  0.70790000  0.74030000  1.0
  O2-  O7  1  0.57290000  0.20790000  0.74030000  1.0
  O2-  O7  1  0.57290000  0.70790000  0.74030000  1.0
  O2-  O7  1  0.29210000  0.42710000  0.75970000  1.0
  O2-  O7  1  0.29210000  0.92710000  0.75970000  1.0
  O2-  O7  1  0.79210000  0.42710000  0.75970000  1.0
  O2-  O7  1  0.79210000  0.92710000  0.75970000  1.0
