# generated using pymatgen
data_LiScO2
_symmetry_space_group_name_H-M   'P 1'
_cell_length_a   25.07460000
_cell_length_b   11.07059504
_cell_length_c   8.35820000
_cell_angle_alpha   112.17863525
_cell_angle_beta   90.00000000
_cell_angle_gamma   67.82136475
_symmetry_Int_Tables_number   1
_chemical_formula_structural   LiScO2
_chemical_formula_sum   'Li48 Sc48 O96'
_cell_volume   1961.86454108
_cell_formula_units_Z   48
loop_
 _symmetry_equiv_pos_site_id
 _symmetry_equiv_pos_as_xyz
  1  'x, y, z'
loop_
 _atom_type_symbol
 _atom_type_oxidation_number
  Li+  1.0
  Sc3+  3.0
  O2-  -2.0
loop_
 _atom_site_type_symbol
 _atom_site_label
 _atom_site_symmetry_multiplicity
 _atom_site_fract_x
 _atom_site_fract_y
 _atom_site_fract_z
 _atom_site_occupancy
  Li+  Li0  1  0.06250000  0.62500000  0.43750000  1.0
  Li+  Li1  1  0.39583333  0.62500000  0.43750000  1.0
  Li+  Li2  1  0.72916667  0.62500000  0.43750000  1.0
  Li+  Li3  1  0.06250000  0.12500000  0.43750000  1.0
  Li+  Li4  1  0.39583333  0.12500000  0.43750000  1.0
  Li+  Li5  1  0.72916667  0.12500000  0.43750000  1.0
  Li+  Li6  1  0.06250000  0.62500000  0.93750000  1.0
  Li+  Li7  1  0.39451755  0.62880275  0.93687531  1.0
  Li+  Li8  1  0.72916667  0.62500000  0.93750000  1.0
  Li+  Li9  1  0.06250000  0.12500000  0.93750000  1.0
  Li+  Li10  1  0.40135766  0.12451823  0.93650137  1.0
  Li+  Li11  1  0.72916667  0.12500000  0.93750000  1.0
  Li+  Li12  1  0.22916667  0.62500000  0.43750000  1.0
  Li+  Li13  1  0.56250000  0.62500000  0.43750000  1.0
  Li+  Li14  1  0.89583333  0.62500000  0.43750000  1.0
  Li+  Li15  1  0.22916667  0.12500000  0.43750000  1.0
  Li+  Li16  1  0.56250000  0.12500000  0.43750000  1.0
  Li+  Li17  1  0.89954997  0.12559087  0.43787995  1.0
  Li+  Li18  1  0.22916667  0.62500000  0.93750000  1.0
  Li+  Li19  1  0.56250000  0.62500000  0.93750000  1.0
  Li+  Li20  1  0.89583333  0.62500000  0.93750000  1.0
  Li+  Li21  1  0.23008625  0.12248498  0.93755409  1.0
  Li+  Li22  1  0.56250000  0.12500000  0.93750000  1.0
  Li+  Li23  1  0.89583333  0.12500000  0.93750000  1.0
  Li+  Li24  1  0.10416667  0.87500000  0.56250000  1.0
  Li+  Li25  1  0.43750000  0.87500000  0.56250000  1.0
  Li+  Li26  1  0.77083333  0.87500000  0.56250000  1.0
  Li+  Li27  1  0.10414938  0.37466257  0.56427815  1.0
  Li+  Li28  1  0.43750000  0.37500000  0.56250000  1.0
  Li+  Li29  1  0.77083333  0.37500000  0.56250000  1.0
  Li+  Li30  1  0.10416667  0.87500000  0.06250000  1.0
  Li+  Li31  1  0.43750000  0.87500000  0.06250000  1.0
  Li+  Li32  1  0.77083333  0.87500000  0.06250000  1.0
  Li+  Li33  1  0.10279558  0.37626865  0.06186795  1.0
  Li+  Li34  1  0.43750000  0.37500000  0.06250000  1.0
  Li+  Li35  1  0.76905121  0.37573797  0.06856714  1.0
  Li+  Li36  1  0.26900080  0.87699267  0.56488021  1.0
  Li+  Li37  1  0.60416667  0.87500000  0.56250000  1.0
  Li+  Li38  1  0.93750000  0.87500000  0.56250000  1.0
  Li+  Li39  1  0.27083333  0.37500000  0.56250000  1.0
  Li+  Li40  1  0.60497558  0.37419919  0.56240304  1.0
  Li+  Li41  1  0.93185874  0.37538996  0.56481849  1.0
  Li+  Li42  1  0.27083333  0.87500000  0.06250000  1.0
  Li+  Li43  1  0.60416667  0.87500000  0.06250000  1.0
  Li+  Li44  1  0.93750000  0.87500000  0.06250000  1.0
  Li+  Li45  1  0.27083333  0.37500000  0.06250000  1.0
  Li+  Li46  1  0.60416667  0.37500000  0.06250000  1.0
  Li+  Li47  1  0.93750000  0.37500000  0.06250000  1.0
  Sc3+  Sc48  1  0.02083333  0.87500000  0.31250000  1.0
  Sc3+  Sc49  1  0.35416667  0.87500000  0.31250000  1.0
  Sc3+  Sc50  1  0.68750000  0.87500000  0.31250000  1.0
  Sc3+  Sc51  1  0.02462947  0.37965357  0.30992498  1.0
  Sc3+  Sc52  1  0.35416667  0.37500000  0.31250000  1.0
  Sc3+  Sc53  1  0.68750000  0.37500000  0.31250000  1.0
  Sc3+  Sc54  1  0.02083333  0.87500000  0.81250000  1.0
  Sc3+  Sc55  1  0.34875280  0.87283598  0.81192760  1.0
  Sc3+  Sc56  1  0.69141007  0.87219460  0.81619694  1.0
  Sc3+  Sc57  1  0.02083333  0.37500000  0.81250000  1.0
  Sc3+  Sc58  1  0.35416667  0.37500000  0.81250000  1.0
  Sc3+  Sc59  1  0.68750000  0.37500000  0.81250000  1.0
  Sc3+  Sc60  1  0.19090024  0.87131069  0.31037002  1.0
  Sc3+  Sc61  1  0.52083333  0.87500000  0.31250000  1.0
  Sc3+  Sc62  1  0.85416667  0.87500000  0.31250000  1.0
  Sc3+  Sc63  1  0.18750000  0.37500000  0.31250000  1.0
  Sc3+  Sc64  1  0.52083333  0.37500000  0.31250000  1.0
  Sc3+  Sc65  1  0.85416667  0.37500000  0.31250000  1.0
  Sc3+  Sc66  1  0.18750000  0.87500000  0.81250000  1.0
  Sc3+  Sc67  1  0.52083333  0.87500000  0.81250000  1.0
  Sc3+  Sc68  1  0.85416667  0.87500000  0.81250000  1.0
  Sc3+  Sc69  1  0.19056576  0.37583507  0.80780243  1.0
  Sc3+  Sc70  1  0.52083333  0.37500000  0.81250000  1.0
  Sc3+  Sc71  1  0.85416667  0.37500000  0.81250000  1.0
  Sc3+  Sc72  1  0.14583333  0.62500000  0.68750000  1.0
  Sc3+  Sc73  1  0.47916667  0.62500000  0.68750000  1.0
  Sc3+  Sc74  1  0.81250000  0.62500000  0.68750000  1.0
  Sc3+  Sc75  1  0.14583333  0.12500000  0.68750000  1.0
  Sc3+  Sc76  1  0.47916667  0.12500000  0.68750000  1.0
  Sc3+  Sc77  1  0.81412027  0.12018523  0.68997764  1.0
  Sc3+  Sc78  1  0.14583333  0.62500000  0.18750000  1.0
  Sc3+  Sc79  1  0.47916667  0.62500000  0.18750000  1.0
  Sc3+  Sc80  1  0.81602067  0.62797058  0.19296312  1.0
  Sc3+  Sc81  1  0.14583333  0.12500000  0.18750000  1.0
  Sc3+  Sc82  1  0.47916667  0.12500000  0.18750000  1.0
  Sc3+  Sc83  1  0.81250000  0.12500000  0.18750000  1.0
  Sc3+  Sc84  1  0.31250000  0.62500000  0.68750000  1.0
  Sc3+  Sc85  1  0.64583333  0.62500000  0.68750000  1.0
  Sc3+  Sc86  1  0.97916667  0.62500000  0.68750000  1.0
  Sc3+  Sc87  1  0.31250000  0.12500000  0.68750000  1.0
  Sc3+  Sc88  1  0.64916471  0.12477258  0.68747877  1.0
  Sc3+  Sc89  1  0.97916667  0.12500000  0.68750000  1.0
  Sc3+  Sc90  1  0.31250000  0.62500000  0.18750000  1.0
  Sc3+  Sc91  1  0.64583333  0.62500000  0.18750000  1.0
  Sc3+  Sc92  1  0.97916667  0.62500000  0.18750000  1.0
  Sc3+  Sc93  1  0.31250000  0.12500000  0.18750000  1.0
  Sc3+  Sc94  1  0.64154091  0.12640149  0.19094390  1.0
  Sc3+  Sc95  1  0.97916667  0.12500000  0.18750000  1.0
  O2-  O96  1  0.11146579  0.85103026  0.29909718  1.0
  O2-  O97  1  0.44717556  0.85216858  0.30255681  1.0
  O2-  O98  1  0.77517500  0.84895000  0.29947500  1.0
  O2-  O99  1  0.10850833  0.34895000  0.29947500  1.0
  O2-  O100  1  0.44125226  0.34627712  0.29838975  1.0
  O2-  O101  1  0.77517500  0.34895000  0.29947500  1.0
  O2-  O102  1  0.10850833  0.84895000  0.79947500  1.0
  O2-  O103  1  0.44184167  0.84895000  0.79947500  1.0
  O2-  O104  1  0.77060771  0.85091858  0.79601339  1.0
  O2-  O105  1  0.10850833  0.34895000  0.79947500  1.0
  O2-  O106  1  0.44364845  0.34607325  0.80039869  1.0
  O2-  O107  1  0.77517500  0.34895000  0.79947500  1.0
  O2-  O108  1  0.27517500  0.84895000  0.29947500  1.0
  O2-  O109  1  0.60850833  0.84895000  0.29947500  1.0
  O2-  O110  1  0.94184167  0.84895000  0.29947500  1.0
  O2-  O111  1  0.27517500  0.34895000  0.29947500  1.0
  O2-  O112  1  0.60850833  0.34895000  0.29947500  1.0
  O2-  O113  1  0.94184167  0.34895000  0.29947500  1.0
  O2-  O114  1  0.27517500  0.84895000  0.79947500  1.0
  O2-  O115  1  0.60569577  0.85140611  0.80478481  1.0
  O2-  O116  1  0.94184167  0.84895000  0.79947500  1.0
  O2-  O117  1  0.27517500  0.34895000  0.79947500  1.0
  O2-  O118  1  0.60850833  0.34895000  0.79947500  1.0
  O2-  O119  1  0.94184167  0.34895000  0.79947500  1.0
  O2-  O120  1  0.15017500  0.59895000  0.42447500  1.0
  O2-  O121  1  0.48599656  0.59801211  0.42562074  1.0
  O2-  O122  1  0.81684167  0.59895000  0.42447500  1.0
  O2-  O123  1  0.15161993  0.10105571  0.42167898  1.0
  O2-  O124  1  0.48350833  0.09895000  0.42447500  1.0
  O2-  O125  1  0.81527736  0.10226316  0.42103796  1.0
  O2-  O126  1  0.15216573  0.59770148  0.92188763  1.0
  O2-  O127  1  0.48350833  0.59895000  0.92447500  1.0
  O2-  O128  1  0.81684167  0.59895000  0.92447500  1.0
  O2-  O129  1  0.15017500  0.09895000  0.92447500  1.0
  O2-  O130  1  0.48350833  0.09895000  0.92447500  1.0
  O2-  O131  1  0.81947832  0.10451692  0.92362071  1.0
  O2-  O132  1  0.31684167  0.59895000  0.42447500  1.0
  O2-  O133  1  0.65017500  0.59895000  0.42447500  1.0
  O2-  O134  1  0.98350833  0.59895000  0.42447500  1.0
  O2-  O135  1  0.31684167  0.09895000  0.42447500  1.0
  O2-  O136  1  0.65017500  0.09895000  0.42447500  1.0
  O2-  O137  1  0.98366581  0.09645525  0.43192021  1.0
  O2-  O138  1  0.31684167  0.59895000  0.92447500  1.0
  O2-  O139  1  0.65017500  0.59895000  0.92447500  1.0
  O2-  O140  1  0.98350833  0.59895000  0.92447500  1.0
  O2-  O141  1  0.31313697  0.10126028  0.92654181  1.0
  O2-  O142  1  0.64827520  0.10093139  0.93006731  1.0
  O2-  O143  1  0.98350833  0.09895000  0.92447500  1.0
  O2-  O144  1  0.05637210  0.65426974  0.70477109  1.0
  O2-  O145  1  0.39149167  0.65105000  0.70052500  1.0
  O2-  O146  1  0.72482500  0.65105000  0.70052500  1.0
  O2-  O147  1  0.05907035  0.15368795  0.70266440  1.0
  O2-  O148  1  0.39149167  0.15105000  0.70052500  1.0
  O2-  O149  1  0.72482500  0.15105000  0.70052500  1.0
  O2-  O150  1  0.06291747  0.65369735  0.20011830  1.0
  O2-  O151  1  0.39149167  0.65105000  0.20052500  1.0
  O2-  O152  1  0.72531387  0.65013585  0.20045664  1.0
  O2-  O153  1  0.05815833  0.15105000  0.20052500  1.0
  O2-  O154  1  0.39149167  0.15105000  0.20052500  1.0
  O2-  O155  1  0.72403531  0.15394905  0.20245146  1.0
  O2-  O156  1  0.22482500  0.65105000  0.70052500  1.0
  O2-  O157  1  0.55815833  0.65105000  0.70052500  1.0
  O2-  O158  1  0.89149167  0.65105000  0.70052500  1.0
  O2-  O159  1  0.22413283  0.15029848  0.69770484  1.0
  O2-  O160  1  0.55815833  0.15105000  0.70052500  1.0
  O2-  O161  1  0.89149167  0.15105000  0.70052500  1.0
  O2-  O162  1  0.22482500  0.65105000  0.20052500  1.0
  O2-  O163  1  0.55815833  0.65105000  0.20052500  1.0
  O2-  O164  1  0.89149167  0.65105000  0.20052500  1.0
  O2-  O165  1  0.22482500  0.15105000  0.20052500  1.0
  O2-  O166  1  0.55864303  0.15131980  0.19805970  1.0
  O2-  O167  1  0.89149167  0.15105000  0.20052500  1.0
  O2-  O168  1  0.01649167  0.90105000  0.57552500  1.0
  O2-  O169  1  0.34896187  0.90864162  0.57551790  1.0
  O2-  O170  1  0.67877502  0.89909131  0.56984937  1.0
  O2-  O171  1  0.01649167  0.40105000  0.57552500  1.0
  O2-  O172  1  0.34982500  0.40105000  0.57552500  1.0
  O2-  O173  1  0.68034480  0.40239120  0.57599724  1.0
  O2-  O174  1  0.01649167  0.90105000  0.07552500  1.0
  O2-  O175  1  0.34982500  0.90105000  0.07552500  1.0
  O2-  O176  1  0.68315833  0.90105000  0.07552500  1.0
  O2-  O177  1  0.01649167  0.40105000  0.07552500  1.0
  O2-  O178  1  0.34982500  0.40105000  0.07552500  1.0
  O2-  O179  1  0.68479238  0.40255858  0.07383325  1.0
  O2-  O180  1  0.18315833  0.90105000  0.57552500  1.0
  O2-  O181  1  0.51649167  0.90105000  0.57552500  1.0
  O2-  O182  1  0.84982500  0.90105000  0.57552500  1.0
  O2-  O183  1  0.18315833  0.40105000  0.57552500  1.0
  O2-  O184  1  0.51773144  0.39708941  0.57371684  1.0
  O2-  O185  1  0.84982500  0.40105000  0.57552500  1.0
  O2-  O186  1  0.18315833  0.90105000  0.07552500  1.0
  O2-  O187  1  0.51689185  0.90000883  0.07609237  1.0
  O2-  O188  1  0.84982500  0.90105000  0.07552500  1.0
  O2-  O189  1  0.18315833  0.40105000  0.07552500  1.0
  O2-  O190  1  0.51304577  0.40115973  0.07724037  1.0
  O2-  O191  1  0.84827560  0.40284548  0.07973181  1.0
