# generated using pymatgen
data_LiScO2
_symmetry_space_group_name_H-M   'P 1'
_cell_length_a   8.34847190
_cell_length_b   25.04541571
_cell_length_c   11.05770999
_cell_angle_alpha   67.82136475
_cell_angle_beta   67.82136475
_cell_angle_gamma   90.00000000
_symmetry_Int_Tables_number   1
_chemical_formula_structural   LiScO2
_chemical_formula_sum   'Li48 Sc48 O96'
_cell_volume   1955.02227631
_cell_formula_units_Z   48
loop_
 _symmetry_equiv_pos_site_id
 _symmetry_equiv_pos_as_xyz
  1  'x, y, z'
loop_
 _atom_type_symbol
 _atom_type_oxidation_number
  Li+  1.0
  Sc3+  3.0
  O2-  -2.0
loop_
 _atom_site_type_symbol
 _atom_site_label
 _atom_site_symmetry_multiplicity
 _atom_site_fract_x
 _atom_site_fract_y
 _atom_site_fract_z
 _atom_site_occupancy
  Li+  Li0  1  0.68750000  0.60416667  0.37500000  1.0
  Li+  Li1  1  0.68750000  0.27083333  0.37500000  1.0
  Li+  Li2  1  0.68750000  0.93750000  0.37500000  1.0
  Li+  Li3  1  0.68750000  0.60416667  0.87500000  1.0
  Li+  Li4  1  0.68750000  0.27083333  0.87500000  1.0
  Li+  Li5  1  0.68750000  0.93750000  0.87500000  1.0
  Li+  Li6  1  0.18750000  0.60416667  0.37500000  1.0
  Li+  Li7  1  0.18750000  0.27083333  0.37500000  1.0
  Li+  Li8  1  0.18750000  0.93750000  0.37500000  1.0
  Li+  Li9  1  0.18750000  0.60416667  0.87500000  1.0
  Li+  Li10  1  0.18750000  0.27083333  0.87500000  1.0
  Li+  Li11  1  0.18750000  0.93750000  0.87500000  1.0
  Li+  Li12  1  0.68750000  0.43750000  0.37500000  1.0
  Li+  Li13  1  0.68750000  0.10416667  0.37500000  1.0
  Li+  Li14  1  0.68750000  0.77083333  0.37500000  1.0
  Li+  Li15  1  0.68750000  0.43750000  0.87500000  1.0
  Li+  Li16  1  0.68750000  0.10416667  0.87500000  1.0
  Li+  Li17  1  0.68750000  0.77083333  0.87500000  1.0
  Li+  Li18  1  0.18750000  0.43750000  0.37500000  1.0
  Li+  Li19  1  0.18750000  0.10416667  0.37500000  1.0
  Li+  Li20  1  0.18750000  0.77083333  0.37500000  1.0
  Li+  Li21  1  0.18750000  0.43750000  0.87500000  1.0
  Li+  Li22  1  0.18750000  0.10416667  0.87500000  1.0
  Li+  Li23  1  0.18750000  0.77083333  0.87500000  1.0
  Li+  Li24  1  0.81250000  0.56250000  0.12500000  1.0
  Li+  Li25  1  0.81250000  0.22916667  0.12500000  1.0
  Li+  Li26  1  0.81250000  0.89583333  0.12500000  1.0
  Li+  Li27  1  0.81250000  0.56250000  0.62500000  1.0
  Li+  Li28  1  0.81250000  0.22916667  0.62500000  1.0
  Li+  Li29  1  0.81250000  0.89583333  0.62500000  1.0
  Li+  Li30  1  0.31250000  0.56250000  0.12500000  1.0
  Li+  Li31  1  0.31250000  0.22916667  0.12500000  1.0
  Li+  Li32  1  0.31250000  0.89583333  0.12500000  1.0
  Li+  Li33  1  0.31250000  0.56250000  0.62500000  1.0
  Li+  Li34  1  0.31250000  0.22916667  0.62500000  1.0
  Li+  Li35  1  0.31250000  0.89583333  0.62500000  1.0
  Li+  Li36  1  0.81250000  0.39583333  0.12500000  1.0
  Li+  Li37  1  0.81250000  0.06250000  0.12500000  1.0
  Li+  Li38  1  0.81250000  0.72916667  0.12500000  1.0
  Li+  Li39  1  0.81250000  0.39583333  0.62500000  1.0
  Li+  Li40  1  0.81250000  0.06250000  0.62500000  1.0
  Li+  Li41  1  0.81250000  0.72916667  0.62500000  1.0
  Li+  Li42  1  0.31250000  0.39583333  0.12500000  1.0
  Li+  Li43  1  0.31250000  0.06250000  0.12500000  1.0
  Li+  Li44  1  0.31250000  0.72916667  0.12500000  1.0
  Li+  Li45  1  0.31250000  0.39583333  0.62500000  1.0
  Li+  Li46  1  0.31250000  0.06250000  0.62500000  1.0
  Li+  Li47  1  0.31250000  0.72916667  0.62500000  1.0
  Sc3+  Sc48  1  0.56250000  0.64583333  0.12500000  1.0
  Sc3+  Sc49  1  0.56250000  0.31250000  0.12500000  1.0
  Sc3+  Sc50  1  0.56250000  0.97916667  0.12500000  1.0
  Sc3+  Sc51  1  0.56250000  0.64583333  0.62500000  1.0
  Sc3+  Sc52  1  0.56250000  0.31250000  0.62500000  1.0
  Sc3+  Sc53  1  0.56250000  0.97916667  0.62500000  1.0
  Sc3+  Sc54  1  0.06250000  0.64583333  0.12500000  1.0
  Sc3+  Sc55  1  0.06250000  0.31250000  0.12500000  1.0
  Sc3+  Sc56  1  0.06250000  0.97916667  0.12500000  1.0
  Sc3+  Sc57  1  0.06250000  0.64583333  0.62500000  1.0
  Sc3+  Sc58  1  0.06250000  0.31250000  0.62500000  1.0
  Sc3+  Sc59  1  0.06250000  0.97916667  0.62500000  1.0
  Sc3+  Sc60  1  0.56250000  0.47916667  0.12500000  1.0
  Sc3+  Sc61  1  0.56250000  0.14583333  0.12500000  1.0
  Sc3+  Sc62  1  0.56250000  0.81250000  0.12500000  1.0
  Sc3+  Sc63  1  0.56250000  0.47916667  0.62500000  1.0
  Sc3+  Sc64  1  0.56250000  0.14583333  0.62500000  1.0
  Sc3+  Sc65  1  0.56250000  0.81250000  0.62500000  1.0
  Sc3+  Sc66  1  0.06250000  0.47916667  0.12500000  1.0
  Sc3+  Sc67  1  0.06250000  0.14583333  0.12500000  1.0
  Sc3+  Sc68  1  0.06250000  0.81250000  0.12500000  1.0
  Sc3+  Sc69  1  0.06250000  0.47916667  0.62500000  1.0
  Sc3+  Sc70  1  0.06250000  0.14583333  0.62500000  1.0
  Sc3+  Sc71  1  0.06250000  0.81250000  0.62500000  1.0
  Sc3+  Sc72  1  0.93750000  0.52083333  0.37500000  1.0
  Sc3+  Sc73  1  0.93750000  0.18750000  0.37500000  1.0
  Sc3+  Sc74  1  0.93750000  0.85416667  0.37500000  1.0
  Sc3+  Sc75  1  0.93750000  0.52083333  0.87500000  1.0
  Sc3+  Sc76  1  0.93750000  0.18750000  0.87500000  1.0
  Sc3+  Sc77  1  0.93750000  0.85416667  0.87500000  1.0
  Sc3+  Sc78  1  0.43750000  0.52083333  0.37500000  1.0
  Sc3+  Sc79  1  0.43750000  0.18750000  0.37500000  1.0
  Sc3+  Sc80  1  0.43750000  0.85416667  0.37500000  1.0
  Sc3+  Sc81  1  0.43750000  0.52083333  0.87500000  1.0
  Sc3+  Sc82  1  0.43750000  0.18750000  0.87500000  1.0
  Sc3+  Sc83  1  0.43750000  0.85416667  0.87500000  1.0
  Sc3+  Sc84  1  0.93750000  0.35416667  0.37500000  1.0
  Sc3+  Sc85  1  0.93750000  0.02083333  0.37500000  1.0
  Sc3+  Sc86  1  0.93750000  0.68750000  0.37500000  1.0
  Sc3+  Sc87  1  0.93750000  0.35416667  0.87500000  1.0
  Sc3+  Sc88  1  0.93750000  0.02083333  0.87500000  1.0
  Sc3+  Sc89  1  0.93750000  0.68750000  0.87500000  1.0
  Sc3+  Sc90  1  0.43750000  0.35416667  0.37500000  1.0
  Sc3+  Sc91  1  0.43750000  0.02083333  0.37500000  1.0
  Sc3+  Sc92  1  0.43750000  0.68750000  0.37500000  1.0
  Sc3+  Sc93  1  0.43750000  0.35416667  0.87500000  1.0
  Sc3+  Sc94  1  0.43750000  0.02083333  0.87500000  1.0
  Sc3+  Sc95  1  0.43750000  0.68750000  0.87500000  1.0
  O2-  O96  1  0.54947500  0.55815833  0.15105000  1.0
  O2-  O97  1  0.54947500  0.22482500  0.15105000  1.0
  O2-  O98  1  0.54947500  0.89149167  0.15105000  1.0
  O2-  O99  1  0.54947500  0.55815833  0.65105000  1.0
  O2-  O100  1  0.54947500  0.22482500  0.65105000  1.0
  O2-  O101  1  0.54947500  0.89149167  0.65105000  1.0
  O2-  O102  1  0.04947500  0.55815833  0.15105000  1.0
  O2-  O103  1  0.04947500  0.22482500  0.15105000  1.0
  O2-  O104  1  0.04947500  0.89149167  0.15105000  1.0
  O2-  O105  1  0.04947500  0.55815833  0.65105000  1.0
  O2-  O106  1  0.04947500  0.22482500  0.65105000  1.0
  O2-  O107  1  0.04947500  0.89149167  0.65105000  1.0
  O2-  O108  1  0.54947500  0.39149167  0.15105000  1.0
  O2-  O109  1  0.54947500  0.05815833  0.15105000  1.0
  O2-  O110  1  0.54947500  0.72482500  0.15105000  1.0
  O2-  O111  1  0.54947500  0.39149167  0.65105000  1.0
  O2-  O112  1  0.54947500  0.05815833  0.65105000  1.0
  O2-  O113  1  0.54947500  0.72482500  0.65105000  1.0
  O2-  O114  1  0.04947500  0.39149167  0.15105000  1.0
  O2-  O115  1  0.04947500  0.05815833  0.15105000  1.0
  O2-  O116  1  0.04947500  0.72482500  0.15105000  1.0
  O2-  O117  1  0.04947500  0.39149167  0.65105000  1.0
  O2-  O118  1  0.04947500  0.05815833  0.65105000  1.0
  O2-  O119  1  0.04947500  0.72482500  0.65105000  1.0
  O2-  O120  1  0.67447500  0.51649167  0.40105000  1.0
  O2-  O121  1  0.67447500  0.18315833  0.40105000  1.0
  O2-  O122  1  0.67447500  0.84982500  0.40105000  1.0
  O2-  O123  1  0.67447500  0.51649167  0.90105000  1.0
  O2-  O124  1  0.67447500  0.18315833  0.90105000  1.0
  O2-  O125  1  0.67447500  0.84982500  0.90105000  1.0
  O2-  O126  1  0.17447500  0.51649167  0.40105000  1.0
  O2-  O127  1  0.17447500  0.18315833  0.40105000  1.0
  O2-  O128  1  0.17447500  0.84982500  0.40105000  1.0
  O2-  O129  1  0.17447500  0.51649167  0.90105000  1.0
  O2-  O130  1  0.17447500  0.18315833  0.90105000  1.0
  O2-  O131  1  0.17447500  0.84982500  0.90105000  1.0
  O2-  O132  1  0.67447500  0.34982500  0.40105000  1.0
  O2-  O133  1  0.67447500  0.01649167  0.40105000  1.0
  O2-  O134  1  0.67447500  0.68315833  0.40105000  1.0
  O2-  O135  1  0.67447500  0.34982500  0.90105000  1.0
  O2-  O136  1  0.67447500  0.01649167  0.90105000  1.0
  O2-  O137  1  0.67447500  0.68315833  0.90105000  1.0
  O2-  O138  1  0.17447500  0.34982500  0.40105000  1.0
  O2-  O139  1  0.17447500  0.01649167  0.40105000  1.0
  O2-  O140  1  0.17447500  0.68315833  0.40105000  1.0
  O2-  O141  1  0.17447500  0.34982500  0.90105000  1.0
  O2-  O142  1  0.17447500  0.01649167  0.90105000  1.0
  O2-  O143  1  0.17447500  0.68315833  0.90105000  1.0
  O2-  O144  1  0.95052500  0.60850833  0.34895000  1.0
  O2-  O145  1  0.95052500  0.27517500  0.34895000  1.0
  O2-  O146  1  0.95052500  0.94184167  0.34895000  1.0
  O2-  O147  1  0.95052500  0.60850833  0.84895000  1.0
  O2-  O148  1  0.95052500  0.27517500  0.84895000  1.0
  O2-  O149  1  0.95052500  0.94184167  0.84895000  1.0
  O2-  O150  1  0.45052500  0.60850833  0.34895000  1.0
  O2-  O151  1  0.45052500  0.27517500  0.34895000  1.0
  O2-  O152  1  0.45052500  0.94184167  0.34895000  1.0
  O2-  O153  1  0.45052500  0.60850833  0.84895000  1.0
  O2-  O154  1  0.45052500  0.27517500  0.84895000  1.0
  O2-  O155  1  0.45052500  0.94184167  0.84895000  1.0
  O2-  O156  1  0.95052500  0.44184167  0.34895000  1.0
  O2-  O157  1  0.95052500  0.10850833  0.34895000  1.0
  O2-  O158  1  0.95052500  0.77517500  0.34895000  1.0
  O2-  O159  1  0.95052500  0.44184167  0.84895000  1.0
  O2-  O160  1  0.95052500  0.10850833  0.84895000  1.0
  O2-  O161  1  0.95052500  0.77517500  0.84895000  1.0
  O2-  O162  1  0.45052500  0.44184167  0.34895000  1.0
  O2-  O163  1  0.45052500  0.10850833  0.34895000  1.0
  O2-  O164  1  0.45052500  0.77517500  0.34895000  1.0
  O2-  O165  1  0.45052500  0.44184167  0.84895000  1.0
  O2-  O166  1  0.45052500  0.10850833  0.84895000  1.0
  O2-  O167  1  0.45052500  0.77517500  0.84895000  1.0
  O2-  O168  1  0.82552500  0.65017500  0.09895000  1.0
  O2-  O169  1  0.82552500  0.31684167  0.09895000  1.0
  O2-  O170  1  0.82552500  0.98350833  0.09895000  1.0
  O2-  O171  1  0.82552500  0.65017500  0.59895000  1.0
  O2-  O172  1  0.82552500  0.31684167  0.59895000  1.0
  O2-  O173  1  0.82552500  0.98350833  0.59895000  1.0
  O2-  O174  1  0.32552500  0.65017500  0.09895000  1.0
  O2-  O175  1  0.32552500  0.31684167  0.09895000  1.0
  O2-  O176  1  0.32552500  0.98350833  0.09895000  1.0
  O2-  O177  1  0.32552500  0.65017500  0.59895000  1.0
  O2-  O178  1  0.32552500  0.31684167  0.59895000  1.0
  O2-  O179  1  0.32552500  0.98350833  0.59895000  1.0
  O2-  O180  1  0.82552500  0.48350833  0.09895000  1.0
  O2-  O181  1  0.82552500  0.15017500  0.09895000  1.0
  O2-  O182  1  0.82552500  0.81684167  0.09895000  1.0
  O2-  O183  1  0.82552500  0.48350833  0.59895000  1.0
  O2-  O184  1  0.82552500  0.15017500  0.59895000  1.0
  O2-  O185  1  0.82552500  0.81684167  0.59895000  1.0
  O2-  O186  1  0.32552500  0.48350833  0.09895000  1.0
  O2-  O187  1  0.32552500  0.15017500  0.09895000  1.0
  O2-  O188  1  0.32552500  0.81684167  0.09895000  1.0
  O2-  O189  1  0.32552500  0.48350833  0.59895000  1.0
  O2-  O190  1  0.32552500  0.15017500  0.59895000  1.0
  O2-  O191  1  0.32552500  0.81684167  0.59895000  1.0
