# generated using pymatgen
data_LiScO2
_symmetry_space_group_name_H-M   'P 1'
_cell_length_a   25.07460000
_cell_length_b   8.35820000
_cell_length_c   11.07059504
_cell_angle_alpha   112.17863525
_cell_angle_beta   112.17863525
_cell_angle_gamma   90.00000000
_symmetry_Int_Tables_number   1
_chemical_formula_structural   LiScO2
_chemical_formula_sum   'Li48 Sc48 O96'
_cell_volume   1961.86454108
_cell_formula_units_Z   48
loop_
 _symmetry_equiv_pos_site_id
 _symmetry_equiv_pos_as_xyz
  1  'x, y, z'
loop_
 _atom_type_symbol
 _atom_type_oxidation_number
  Li+  1.0
  Sc3+  3.0
  O2-  -2.0
loop_
 _atom_site_type_symbol
 _atom_site_label
 _atom_site_symmetry_multiplicity
 _atom_site_fract_x
 _atom_site_fract_y
 _atom_site_fract_z
 _atom_site_occupancy
  Li+  Li1  1  0.06250000  0.31250000  0.37500000  1.0
  Li+  Li1  1  0.39583333  0.31250000  0.37500000  1.0
  Li+  Li1  1  0.72916667  0.31250000  0.37500000  1.0
  Li+  Li1  1  0.06250000  0.31250000  0.87500000  1.0
  Li+  Li1  1  0.39583333  0.31250000  0.87500000  1.0
  Li+  Li1  1  0.72916667  0.31250000  0.87500000  1.0
  Li+  Li1  1  0.06250000  0.81250000  0.37500000  1.0
  Li+  Li1  1  0.39583333  0.81250000  0.37500000  1.0
  Li+  Li1  1  0.72916667  0.81250000  0.37500000  1.0
  Li+  Li1  1  0.06250000  0.81250000  0.87500000  1.0
  Li+  Li1  1  0.39583333  0.81250000  0.87500000  1.0
  Li+  Li1  1  0.72916667  0.81250000  0.87500000  1.0
  Li+  Li1  1  0.22916667  0.31250000  0.37500000  1.0
  Li+  Li1  1  0.56250000  0.31250000  0.37500000  1.0
  Li+  Li1  1  0.89583333  0.31250000  0.37500000  1.0
  Li+  Li1  1  0.22916667  0.31250000  0.87500000  1.0
  Li+  Li1  1  0.56250000  0.31250000  0.87500000  1.0
  Li+  Li1  1  0.89583333  0.31250000  0.87500000  1.0
  Li+  Li1  1  0.22916667  0.81250000  0.37500000  1.0
  Li+  Li1  1  0.56250000  0.81250000  0.37500000  1.0
  Li+  Li1  1  0.89583333  0.81250000  0.37500000  1.0
  Li+  Li1  1  0.22916667  0.81250000  0.87500000  1.0
  Li+  Li1  1  0.56250000  0.81250000  0.87500000  1.0
  Li+  Li1  1  0.89583333  0.81250000  0.87500000  1.0
  Li+  Li1  1  0.10416667  0.18750000  0.12500000  1.0
  Li+  Li1  1  0.43750000  0.18750000  0.12500000  1.0
  Li+  Li1  1  0.77083333  0.18750000  0.12500000  1.0
  Li+  Li1  1  0.10416667  0.18750000  0.62500000  1.0
  Li+  Li1  1  0.43750000  0.18750000  0.62500000  1.0
  Li+  Li1  1  0.77083333  0.18750000  0.62500000  1.0
  Li+  Li1  1  0.10416667  0.68750000  0.12500000  1.0
  Li+  Li1  1  0.43750000  0.68750000  0.12500000  1.0
  Li+  Li1  1  0.77083333  0.68750000  0.12500000  1.0
  Li+  Li1  1  0.10416667  0.68750000  0.62500000  1.0
  Li+  Li1  1  0.43750000  0.68750000  0.62500000  1.0
  Li+  Li1  1  0.77083333  0.68750000  0.62500000  1.0
  Li+  Li1  1  0.27083333  0.18750000  0.12500000  1.0
  Li+  Li1  1  0.60416667  0.18750000  0.12500000  1.0
  Li+  Li1  1  0.93750000  0.18750000  0.12500000  1.0
  Li+  Li1  1  0.27083333  0.18750000  0.62500000  1.0
  Li+  Li1  1  0.60416667  0.18750000  0.62500000  1.0
  Li+  Li1  1  0.93750000  0.18750000  0.62500000  1.0
  Li+  Li1  1  0.27083333  0.68750000  0.12500000  1.0
  Li+  Li1  1  0.60416667  0.68750000  0.12500000  1.0
  Li+  Li1  1  0.93750000  0.68750000  0.12500000  1.0
  Li+  Li1  1  0.27083333  0.68750000  0.62500000  1.0
  Li+  Li1  1  0.60416667  0.68750000  0.62500000  1.0
  Li+  Li1  1  0.93750000  0.68750000  0.62500000  1.0
  Sc3+  Sc1  1  0.02083333  0.43750000  0.12500000  1.0
  Sc3+  Sc1  1  0.35416667  0.43750000  0.12500000  1.0
  Sc3+  Sc1  1  0.68750000  0.43750000  0.12500000  1.0
  Sc3+  Sc1  1  0.02083333  0.43750000  0.62500000  1.0
  Sc3+  Sc1  1  0.35416667  0.43750000  0.62500000  1.0
  Sc3+  Sc1  1  0.68750000  0.43750000  0.62500000  1.0
  Sc3+  Sc1  1  0.02083333  0.93750000  0.12500000  1.0
  Sc3+  Sc1  1  0.35416667  0.93750000  0.12500000  1.0
  Sc3+  Sc1  1  0.68750000  0.93750000  0.12500000  1.0
  Sc3+  Sc1  1  0.02083333  0.93750000  0.62500000  1.0
  Sc3+  Sc1  1  0.35416667  0.93750000  0.62500000  1.0
  Sc3+  Sc1  1  0.68750000  0.93750000  0.62500000  1.0
  Sc3+  Sc1  1  0.18750000  0.43750000  0.12500000  1.0
  Sc3+  Sc1  1  0.52083333  0.43750000  0.12500000  1.0
  Sc3+  Sc1  1  0.85416667  0.43750000  0.12500000  1.0
  Sc3+  Sc1  1  0.18750000  0.43750000  0.62500000  1.0
  Sc3+  Sc1  1  0.52083333  0.43750000  0.62500000  1.0
  Sc3+  Sc1  1  0.85416667  0.43750000  0.62500000  1.0
  Sc3+  Sc1  1  0.18750000  0.93750000  0.12500000  1.0
  Sc3+  Sc1  1  0.52083333  0.93750000  0.12500000  1.0
  Sc3+  Sc1  1  0.85416667  0.93750000  0.12500000  1.0
  Sc3+  Sc1  1  0.18750000  0.93750000  0.62500000  1.0
  Sc3+  Sc1  1  0.52083333  0.93750000  0.62500000  1.0
  Sc3+  Sc1  1  0.85416667  0.93750000  0.62500000  1.0
  Sc3+  Sc1  1  0.14583333  0.06250000  0.37500000  1.0
  Sc3+  Sc1  1  0.47916667  0.06250000  0.37500000  1.0
  Sc3+  Sc1  1  0.81250000  0.06250000  0.37500000  1.0
  Sc3+  Sc1  1  0.14583333  0.06250000  0.87500000  1.0
  Sc3+  Sc1  1  0.47916667  0.06250000  0.87500000  1.0
  Sc3+  Sc1  1  0.81250000  0.06250000  0.87500000  1.0
  Sc3+  Sc1  1  0.14583333  0.56250000  0.37500000  1.0
  Sc3+  Sc1  1  0.47916667  0.56250000  0.37500000  1.0
  Sc3+  Sc1  1  0.81250000  0.56250000  0.37500000  1.0
  Sc3+  Sc1  1  0.14583333  0.56250000  0.87500000  1.0
  Sc3+  Sc1  1  0.47916667  0.56250000  0.87500000  1.0
  Sc3+  Sc1  1  0.81250000  0.56250000  0.87500000  1.0
  Sc3+  Sc1  1  0.31250000  0.06250000  0.37500000  1.0
  Sc3+  Sc1  1  0.64583333  0.06250000  0.37500000  1.0
  Sc3+  Sc1  1  0.97916667  0.06250000  0.37500000  1.0
  Sc3+  Sc1  1  0.31250000  0.06250000  0.87500000  1.0
  Sc3+  Sc1  1  0.64583333  0.06250000  0.87500000  1.0
  Sc3+  Sc1  1  0.97916667  0.06250000  0.87500000  1.0
  Sc3+  Sc1  1  0.31250000  0.56250000  0.37500000  1.0
  Sc3+  Sc1  1  0.64583333  0.56250000  0.37500000  1.0
  Sc3+  Sc1  1  0.97916667  0.56250000  0.37500000  1.0
  Sc3+  Sc1  1  0.31250000  0.56250000  0.87500000  1.0
  Sc3+  Sc1  1  0.64583333  0.56250000  0.87500000  1.0
  Sc3+  Sc1  1  0.97916667  0.56250000  0.87500000  1.0
  O2-  O1  1  0.10850833  0.45052500  0.15105000  1.0
  O2-  O1  1  0.44184167  0.45052500  0.15105000  1.0
  O2-  O1  1  0.77517500  0.45052500  0.15105000  1.0
  O2-  O1  1  0.10850833  0.45052500  0.65105000  1.0
  O2-  O1  1  0.44184167  0.45052500  0.65105000  1.0
  O2-  O1  1  0.77517500  0.45052500  0.65105000  1.0
  O2-  O1  1  0.10850833  0.95052500  0.15105000  1.0
  O2-  O1  1  0.44184167  0.95052500  0.15105000  1.0
  O2-  O1  1  0.77517500  0.95052500  0.15105000  1.0
  O2-  O1  1  0.10850833  0.95052500  0.65105000  1.0
  O2-  O1  1  0.44184167  0.95052500  0.65105000  1.0
  O2-  O1  1  0.77517500  0.95052500  0.65105000  1.0
  O2-  O1  1  0.27517500  0.45052500  0.15105000  1.0
  O2-  O1  1  0.60850833  0.45052500  0.15105000  1.0
  O2-  O1  1  0.94184167  0.45052500  0.15105000  1.0
  O2-  O1  1  0.27517500  0.45052500  0.65105000  1.0
  O2-  O1  1  0.60850833  0.45052500  0.65105000  1.0
  O2-  O1  1  0.94184167  0.45052500  0.65105000  1.0
  O2-  O1  1  0.27517500  0.95052500  0.15105000  1.0
  O2-  O1  1  0.60850833  0.95052500  0.15105000  1.0
  O2-  O1  1  0.94184167  0.95052500  0.15105000  1.0
  O2-  O1  1  0.27517500  0.95052500  0.65105000  1.0
  O2-  O1  1  0.60850833  0.95052500  0.65105000  1.0
  O2-  O1  1  0.94184167  0.95052500  0.65105000  1.0
  O2-  O1  1  0.15017500  0.32552500  0.40105000  1.0
  O2-  O1  1  0.48350833  0.32552500  0.40105000  1.0
  O2-  O1  1  0.81684167  0.32552500  0.40105000  1.0
  O2-  O1  1  0.15017500  0.32552500  0.90105000  1.0
  O2-  O1  1  0.48350833  0.32552500  0.90105000  1.0
  O2-  O1  1  0.81684167  0.32552500  0.90105000  1.0
  O2-  O1  1  0.15017500  0.82552500  0.40105000  1.0
  O2-  O1  1  0.48350833  0.82552500  0.40105000  1.0
  O2-  O1  1  0.81684167  0.82552500  0.40105000  1.0
  O2-  O1  1  0.15017500  0.82552500  0.90105000  1.0
  O2-  O1  1  0.48350833  0.82552500  0.90105000  1.0
  O2-  O1  1  0.81684167  0.82552500  0.90105000  1.0
  O2-  O1  1  0.31684167  0.32552500  0.40105000  1.0
  O2-  O1  1  0.65017500  0.32552500  0.40105000  1.0
  O2-  O1  1  0.98350833  0.32552500  0.40105000  1.0
  O2-  O1  1  0.31684167  0.32552500  0.90105000  1.0
  O2-  O1  1  0.65017500  0.32552500  0.90105000  1.0
  O2-  O1  1  0.98350833  0.32552500  0.90105000  1.0
  O2-  O1  1  0.31684167  0.82552500  0.40105000  1.0
  O2-  O1  1  0.65017500  0.82552500  0.40105000  1.0
  O2-  O1  1  0.98350833  0.82552500  0.40105000  1.0
  O2-  O1  1  0.31684167  0.82552500  0.90105000  1.0
  O2-  O1  1  0.65017500  0.82552500  0.90105000  1.0
  O2-  O1  1  0.98350833  0.82552500  0.90105000  1.0
  O2-  O1  1  0.05815833  0.04947500  0.34895000  1.0
  O2-  O1  1  0.39149167  0.04947500  0.34895000  1.0
  O2-  O1  1  0.72482500  0.04947500  0.34895000  1.0
  O2-  O1  1  0.05815833  0.04947500  0.84895000  1.0
  O2-  O1  1  0.39149167  0.04947500  0.84895000  1.0
  O2-  O1  1  0.72482500  0.04947500  0.84895000  1.0
  O2-  O1  1  0.05815833  0.54947500  0.34895000  1.0
  O2-  O1  1  0.39149167  0.54947500  0.34895000  1.0
  O2-  O1  1  0.72482500  0.54947500  0.34895000  1.0
  O2-  O1  1  0.05815833  0.54947500  0.84895000  1.0
  O2-  O1  1  0.39149167  0.54947500  0.84895000  1.0
  O2-  O1  1  0.72482500  0.54947500  0.84895000  1.0
  O2-  O1  1  0.22482500  0.04947500  0.34895000  1.0
  O2-  O1  1  0.55815833  0.04947500  0.34895000  1.0
  O2-  O1  1  0.89149167  0.04947500  0.34895000  1.0
  O2-  O1  1  0.22482500  0.04947500  0.84895000  1.0
  O2-  O1  1  0.55815833  0.04947500  0.84895000  1.0
  O2-  O1  1  0.89149167  0.04947500  0.84895000  1.0
  O2-  O1  1  0.22482500  0.54947500  0.34895000  1.0
  O2-  O1  1  0.55815833  0.54947500  0.34895000  1.0
  O2-  O1  1  0.89149167  0.54947500  0.34895000  1.0
  O2-  O1  1  0.22482500  0.54947500  0.84895000  1.0
  O2-  O1  1  0.55815833  0.54947500  0.84895000  1.0
  O2-  O1  1  0.89149167  0.54947500  0.84895000  1.0
  O2-  O1  1  0.01649167  0.17447500  0.09895000  1.0
  O2-  O1  1  0.34982500  0.17447500  0.09895000  1.0
  O2-  O1  1  0.68315833  0.17447500  0.09895000  1.0
  O2-  O1  1  0.01649167  0.17447500  0.59895000  1.0
  O2-  O1  1  0.34982500  0.17447500  0.59895000  1.0
  O2-  O1  1  0.68315833  0.17447500  0.59895000  1.0
  O2-  O1  1  0.01649167  0.67447500  0.09895000  1.0
  O2-  O1  1  0.34982500  0.67447500  0.09895000  1.0
  O2-  O1  1  0.68315833  0.67447500  0.09895000  1.0
  O2-  O1  1  0.01649167  0.67447500  0.59895000  1.0
  O2-  O1  1  0.34982500  0.67447500  0.59895000  1.0
  O2-  O1  1  0.68315833  0.67447500  0.59895000  1.0
  O2-  O1  1  0.18315833  0.17447500  0.09895000  1.0
  O2-  O1  1  0.51649167  0.17447500  0.09895000  1.0
  O2-  O1  1  0.84982500  0.17447500  0.09895000  1.0
  O2-  O1  1  0.18315833  0.17447500  0.59895000  1.0
  O2-  O1  1  0.51649167  0.17447500  0.59895000  1.0
  O2-  O1  1  0.84982500  0.17447500  0.59895000  1.0
  O2-  O1  1  0.18315833  0.67447500  0.09895000  1.0
  O2-  O1  1  0.51649167  0.67447500  0.09895000  1.0
  O2-  O1  1  0.84982500  0.67447500  0.09895000  1.0
  O2-  O1  1  0.18315833  0.67447500  0.59895000  1.0
  O2-  O1  1  0.51649167  0.67447500  0.59895000  1.0
  O2-  O1  1  0.84982500  0.67447500  0.59895000  1.0
