# generated using pymatgen
data_Na5Li3(TiS4)2
_symmetry_space_group_name_H-M   'P 1'
_cell_length_a   19.28080000
_cell_length_b   20.04829028
_cell_length_c   10.02458013
_cell_angle_alpha   74.10005552
_cell_angle_beta   118.74015355
_cell_angle_gamma   118.74151704
_symmetry_Int_Tables_number   1
_chemical_formula_structural   Na5Li3(TiS4)2
_chemical_formula_sum   'Na40 Li24 Ti16 S64'
_cell_volume   2974.41140206
_cell_formula_units_Z   8
loop_
 _symmetry_equiv_pos_site_id
 _symmetry_equiv_pos_as_xyz
  1  'x, y, z'
loop_
 _atom_type_symbol
 _atom_type_oxidation_number
  Na+  1.0
  Li+  1.0
  Ti4+  4.0
  S2-  -2.0
loop_
 _atom_site_type_symbol
 _atom_site_label
 _atom_site_symmetry_multiplicity
 _atom_site_fract_x
 _atom_site_fract_y
 _atom_site_fract_z
 _atom_site_occupancy
  Na+  Na0  1  0.19595500  0.50773500  0.02689000  1.0
  Na+  Na1  1  0.19595500  0.00773500  0.02689000  1.0
  Na+  Na2  1  0.69595500  0.50773500  0.02689000  1.0
  Na+  Na3  1  0.69595500  0.00773500  0.02689000  1.0
  Na+  Na4  1  0.04977500  0.74226500  0.97311000  1.0
  Na+  Na5  1  0.04977500  0.24226500  0.97311000  1.0
  Na+  Na6  1  0.54977500  0.74226500  0.97311000  1.0
  Na+  Na7  1  0.54953270  0.24352246  0.97621755  1.0
  Na+  Na8  1  0.30404500  0.99226500  0.47311000  1.0
  Na+  Na9  1  0.30404500  0.49226500  0.47311000  1.0
  Na+  Na10  1  0.80404500  0.99226500  0.47311000  1.0
  Na+  Na11  1  0.80404500  0.49226500  0.47311000  1.0
  Na+  Na12  1  0.45022500  0.75773500  0.52689000  1.0
  Na+  Na13  1  0.45139916  0.25851640  0.52589963  1.0
  Na+  Na14  1  0.95022500  0.75773500  0.52689000  1.0
  Na+  Na15  1  0.94460509  0.25579400  0.52212366  1.0
  Na+  Na16  1  0.29312500  0.61729000  0.71496000  1.0
  Na+  Na17  1  0.29312500  0.11729000  0.71496000  1.0
  Na+  Na18  1  0.79312500  0.61729000  0.71496000  1.0
  Na+  Na19  1  0.79312500  0.11729000  0.71496000  1.0
  Na+  Na20  1  0.19335500  0.63271000  0.28504000  1.0
  Na+  Na21  1  0.19335500  0.13271000  0.28504000  1.0
  Na+  Na22  1  0.69335500  0.63271000  0.28504000  1.0
  Na+  Na23  1  0.69335500  0.13271000  0.28504000  1.0
  Na+  Na24  1  0.20687500  0.88271000  0.78504000  1.0
  Na+  Na25  1  0.20687500  0.38271000  0.78504000  1.0
  Na+  Na26  1  0.71035588  0.88390209  0.78632437  1.0
  Na+  Na27  1  0.70687500  0.38271000  0.78504000  1.0
  Na+  Na28  1  0.30513856  0.86404400  0.21727282  1.0
  Na+  Na29  1  0.30664500  0.36729000  0.21496000  1.0
  Na+  Na30  1  0.80621526  0.86785501  0.21360406  1.0
  Na+  Na31  1  0.80664500  0.36729000  0.21496000  1.0
  Na+  Na32  1  0.49609000  0.87500000  0.00000000  1.0
  Na+  Na33  1  0.49609000  0.37500000  0.00000000  1.0
  Na+  Na34  1  0.99609000  0.87500000  0.00000000  1.0
  Na+  Na35  1  0.99609000  0.37500000  0.00000000  1.0
  Na+  Na36  1  0.00391000  0.62500000  0.50000000  1.0
  Na+  Na37  1  0.00391000  0.12500000  0.50000000  1.0
  Na+  Na38  1  0.50486596  0.62167208  0.50311351  1.0
  Na+  Na39  1  0.50914241  0.12426885  0.50063967  1.0
  Li+  Li40  1  0.40290000  0.87090000  0.62280000  1.0
  Li+  Li41  1  0.40290000  0.37090000  0.62280000  1.0
  Li+  Li42  1  0.90290000  0.87090000  0.62280000  1.0
  Li+  Li43  1  0.90290000  0.37090000  0.62280000  1.0
  Li+  Li44  1  0.09560000  0.87910000  0.37720000  1.0
  Li+  Li45  1  0.09560000  0.37910000  0.37720000  1.0
  Li+  Li46  1  0.59584996  0.88140065  0.37519558  1.0
  Li+  Li47  1  0.59560000  0.37910000  0.37720000  1.0
  Li+  Li48  1  0.09770773  0.62546095  0.87642754  1.0
  Li+  Li49  1  0.09710000  0.12910000  0.87720000  1.0
  Li+  Li50  1  0.59710000  0.62910000  0.87720000  1.0
  Li+  Li51  1  0.59710000  0.12910000  0.87720000  1.0
  Li+  Li52  1  0.40276400  0.61885038  0.12128827  1.0
  Li+  Li53  1  0.40295304  0.11774039  0.12222467  1.0
  Li+  Li54  1  0.90440000  0.62090000  0.12280000  1.0
  Li+  Li55  1  0.90440000  0.12090000  0.12280000  1.0
  Li+  Li56  1  0.25000000  0.75000000  0.75000000  1.0
  Li+  Li57  1  0.25000000  0.25000000  0.75000000  1.0
  Li+  Li58  1  0.75251314  0.74573169  0.74884949  1.0
  Li+  Li59  1  0.75187770  0.24709857  0.75350542  1.0
  Li+  Li60  1  0.00000000  0.00000000  0.25000000  1.0
  Li+  Li61  1  0.00000000  0.50000000  0.25000000  1.0
  Li+  Li62  1  0.50000000  0.00000000  0.25000000  1.0
  Li+  Li63  1  0.49631945  0.49816369  0.24689856  1.0
  Ti4+  Ti64  1  0.34062500  0.73385500  0.11487000  1.0
  Ti4+  Ti65  1  0.34321875  0.23510383  0.11199357  1.0
  Ti4+  Ti66  1  0.84062500  0.73385500  0.11487000  1.0
  Ti4+  Ti67  1  0.84062500  0.23385500  0.11487000  1.0
  Ti4+  Ti68  1  0.42666521  0.51873673  0.88643207  1.0
  Ti4+  Ti69  1  0.42433500  0.01614500  0.88513000  1.0
  Ti4+  Ti70  1  0.92433500  0.51614500  0.88513000  1.0
  Ti4+  Ti71  1  0.92433500  0.01614500  0.88513000  1.0
  Ti4+  Ti72  1  0.15937500  0.76614500  0.38513000  1.0
  Ti4+  Ti73  1  0.15937500  0.26614500  0.38513000  1.0
  Ti4+  Ti74  1  0.65937500  0.76614500  0.38513000  1.0
  Ti4+  Ti75  1  0.65396941  0.26501066  0.38780429  1.0
  Ti4+  Ti76  1  0.07458316  0.98627501  0.61133564  1.0
  Ti4+  Ti77  1  0.07566500  0.48385500  0.61487000  1.0
  Ti4+  Ti78  1  0.57566500  0.98385500  0.61487000  1.0
  Ti4+  Ti79  1  0.57416308  0.48510535  0.61671334  1.0
  S2-  S80  1  0.35518000  0.91136500  0.75529000  1.0
  S2-  S81  1  0.35552971  0.41263984  0.75521651  1.0
  S2-  S82  1  0.85518000  0.91136500  0.75529000  1.0
  S2-  S83  1  0.85518000  0.41136500  0.75529000  1.0
  S2-  S84  1  0.44282762  0.83779896  0.24763849  1.0
  S2-  S85  1  0.44117000  0.33863500  0.24471000  1.0
  S2-  S86  1  0.94117000  0.83863500  0.24471000  1.0
  S2-  S87  1  0.94117000  0.33863500  0.24471000  1.0
  S2-  S88  1  0.14482000  0.58863500  0.74471000  1.0
  S2-  S89  1  0.14482000  0.08863500  0.74471000  1.0
  S2-  S90  1  0.64482000  0.58863500  0.74471000  1.0
  S2-  S91  1  0.64482000  0.08863500  0.74471000  1.0
  S2-  S92  1  0.05883000  0.66136500  0.25529000  1.0
  S2-  S93  1  0.05726099  0.16179782  0.25328892  1.0
  S2-  S94  1  0.55902676  0.66435835  0.25387099  1.0
  S2-  S95  1  0.55883000  0.16136500  0.25529000  1.0
  S2-  S96  1  0.21245000  0.74610000  0.00056000  1.0
  S2-  S97  1  0.21245000  0.24610000  0.00056000  1.0
  S2-  S98  1  0.71245000  0.74610000  0.00056000  1.0
  S2-  S99  1  0.71566928  0.24253168  0.00600617  1.0
  S2-  S100  1  0.34107000  0.50390000  0.99944000  1.0
  S2-  S101  1  0.34107000  0.00390000  0.99944000  1.0
  S2-  S102  1  0.84107000  0.50390000  0.99944000  1.0
  S2-  S103  1  0.84315027  0.00356774  0.99956325  1.0
  S2-  S104  1  0.28755000  0.75390000  0.49944000  1.0
  S2-  S105  1  0.28755000  0.25390000  0.49944000  1.0
  S2-  S106  1  0.78755000  0.75390000  0.49944000  1.0
  S2-  S107  1  0.78147368  0.25000203  0.50140324  1.0
  S2-  S108  1  0.15893000  0.99610000  0.50056000  1.0
  S2-  S109  1  0.15893000  0.49610000  0.50056000  1.0
  S2-  S110  1  0.65893000  0.99610000  0.50056000  1.0
  S2-  S111  1  0.65893000  0.49610000  0.50056000  1.0
  S2-  S112  1  0.37970000  0.72580000  0.94186000  1.0
  S2-  S113  1  0.37970000  0.22580000  0.94186000  1.0
  S2-  S114  1  0.87970000  0.72580000  0.94186000  1.0
  S2-  S115  1  0.87267928  0.22459925  0.93979443  1.0
  S2-  S116  1  0.05378995  0.52493645  0.05663219  1.0
  S2-  S117  1  0.05633210  0.02630692  0.06161078  1.0
  S2-  S118  1  0.55867476  0.52124764  0.05992575  1.0
  S2-  S119  1  0.55895178  0.02873581  0.05786437  1.0
  S2-  S120  1  0.12030000  0.77420000  0.55814000  1.0
  S2-  S121  1  0.12030000  0.27420000  0.55814000  1.0
  S2-  S122  1  0.61942942  0.77652446  0.55933580  1.0
  S2-  S123  1  0.62030000  0.27420000  0.55814000  1.0
  S2-  S124  1  0.44203000  0.97580000  0.44186000  1.0
  S2-  S125  1  0.44203000  0.47580000  0.44186000  1.0
  S2-  S126  1  0.94203000  0.97580000  0.44186000  1.0
  S2-  S127  1  0.94203000  0.47580000  0.44186000  1.0
  S2-  S128  1  0.16684500  0.87404000  0.22990000  1.0
  S2-  S129  1  0.16684500  0.37404000  0.22990000  1.0
  S2-  S130  1  0.66684500  0.87404000  0.22990000  1.0
  S2-  S131  1  0.66684500  0.37404000  0.22990000  1.0
  S2-  S132  1  0.05285500  0.87596000  0.77010000  1.0
  S2-  S133  1  0.05285500  0.37596000  0.77010000  1.0
  S2-  S134  1  0.55285500  0.87596000  0.77010000  1.0
  S2-  S135  1  0.55406128  0.37684427  0.77001499  1.0
  S2-  S136  1  0.33315500  0.62596000  0.27010000  1.0
  S2-  S137  1  0.33315500  0.12596000  0.27010000  1.0
  S2-  S138  1  0.83315500  0.62596000  0.27010000  1.0
  S2-  S139  1  0.83315500  0.12596000  0.27010000  1.0
  S2-  S140  1  0.44589184  0.62447230  0.72713227  1.0
  S2-  S141  1  0.44714500  0.12404000  0.72990000  1.0
  S2-  S142  1  0.94652124  0.62576794  0.72916782  1.0
  S2-  S143  1  0.94714500  0.12404000  0.72990000  1.0
