# generated using pymatgen
data_Na5Li3(TiS4)2
_symmetry_space_group_name_H-M   'P 1'
_cell_length_a   10.03505448
_cell_length_b   19.30094587
_cell_length_c   20.06923808
_cell_angle_alpha   118.74151704
_cell_angle_beta   105.89994448
_cell_angle_gamma   61.25984645
_symmetry_Int_Tables_number   1
_chemical_formula_structural   Na5Li3(TiS4)2
_chemical_formula_sum   'Na40 Li24 Ti16 S64'
_cell_volume   2983.74473964
_cell_formula_units_Z   8
loop_
 _symmetry_equiv_pos_site_id
 _symmetry_equiv_pos_as_xyz
  1  'x, y, z'
loop_
 _atom_type_symbol
 _atom_type_oxidation_number
  Na+  1.0
  Li+  1.0
  Ti4+  4.0
  S2-  -2.0
loop_
 _atom_site_type_symbol
 _atom_site_label
 _atom_site_symmetry_multiplicity
 _atom_site_fract_x
 _atom_site_fract_y
 _atom_site_fract_z
 _atom_site_occupancy
  Na+  Na0  1  0.27689000  0.47071167  0.49226500  1.0
  Na+  Na1  1  0.27689000  0.47071167  0.99226500  1.0
  Na+  Na2  1  0.27689000  0.97071167  0.49226500  1.0
  Na+  Na3  1  0.27689000  0.97071167  0.99226500  1.0
  Na+  Na4  1  0.22311000  0.61689167  0.25773500  1.0
  Na+  Na5  1  0.22311000  0.61689167  0.75773500  1.0
  Na+  Na6  1  0.22311000  0.11689167  0.25773500  1.0
  Na+  Na7  1  0.22311000  0.11689167  0.75773500  1.0
  Na+  Na8  1  0.72311000  0.36262167  0.00773500  1.0
  Na+  Na9  1  0.72311000  0.36262167  0.50773500  1.0
  Na+  Na10  1  0.72311000  0.86262167  0.00773500  1.0
  Na+  Na11  1  0.72311000  0.86262167  0.50773500  1.0
  Na+  Na12  1  0.77689000  0.21644167  0.24226500  1.0
  Na+  Na13  1  0.77689000  0.21644167  0.74226500  1.0
  Na+  Na14  1  0.77689000  0.71644167  0.24226500  1.0
  Na+  Na15  1  0.77689000  0.71644167  0.74226500  1.0
  Na+  Na16  1  0.96496000  0.37354167  0.38271000  1.0
  Na+  Na17  1  0.96496000  0.37354167  0.88271000  1.0
  Na+  Na18  1  0.96496000  0.87354167  0.38271000  1.0
  Na+  Na19  1  0.96496000  0.87354167  0.88271000  1.0
  Na+  Na20  1  0.53504000  0.47331167  0.36729000  1.0
  Na+  Na21  1  0.53504000  0.47331167  0.86729000  1.0
  Na+  Na22  1  0.53504000  0.97331167  0.36729000  1.0
  Na+  Na23  1  0.53504000  0.97331167  0.86729000  1.0
  Na+  Na24  1  0.03504000  0.45979167  0.11729000  1.0
  Na+  Na25  1  0.03504000  0.45979167  0.61729000  1.0
  Na+  Na26  1  0.03504000  0.95979167  0.11729000  1.0
  Na+  Na27  1  0.03504000  0.95979167  0.61729000  1.0
  Na+  Na28  1  0.46496000  0.36002167  0.13271000  1.0
  Na+  Na29  1  0.46496000  0.36002167  0.63271000  1.0
  Na+  Na30  1  0.46496000  0.86002167  0.13271000  1.0
  Na+  Na31  1  0.46496000  0.86002167  0.63271000  1.0
  Na+  Na32  1  0.25000000  0.17057667  0.12500000  1.0
  Na+  Na33  1  0.25000000  0.17057667  0.62500000  1.0
  Na+  Na34  1  0.25000000  0.67057667  0.12500000  1.0
  Na+  Na35  1  0.25000000  0.67057667  0.62500000  1.0
  Na+  Na36  1  0.75000000  0.66275667  0.37500000  1.0
  Na+  Na37  1  0.75000000  0.66275667  0.87500000  1.0
  Na+  Na38  1  0.75000000  0.16275667  0.37500000  1.0
  Na+  Na39  1  0.75000000  0.16275667  0.87500000  1.0
  Li+  Li40  1  0.87280000  0.26376667  0.12910000  1.0
  Li+  Li41  1  0.87280000  0.26376667  0.62910000  1.0
  Li+  Li42  1  0.87280000  0.76376667  0.12910000  1.0
  Li+  Li43  1  0.87280000  0.76376667  0.62910000  1.0
  Li+  Li44  1  0.62720000  0.57106667  0.12090000  1.0
  Li+  Li45  1  0.62720000  0.57106667  0.62090000  1.0
  Li+  Li46  1  0.62720000  0.07106667  0.12090000  1.0
  Li+  Li47  1  0.62720000  0.07106667  0.62090000  1.0
  Li+  Li48  1  0.12720000  0.56956667  0.37090000  1.0
  Li+  Li49  1  0.12720000  0.56956667  0.87090000  1.0
  Li+  Li50  1  0.12720000  0.06956667  0.37090000  1.0
  Li+  Li51  1  0.12720000  0.06956667  0.87090000  1.0
  Li+  Li52  1  0.37280000  0.26226667  0.37910000  1.0
  Li+  Li53  1  0.37280000  0.26226667  0.87910000  1.0
  Li+  Li54  1  0.37280000  0.76226667  0.37910000  1.0
  Li+  Li55  1  0.37280000  0.76226667  0.87910000  1.0
  Li+  Li56  1  0.00000000  0.41666667  0.25000000  1.0
  Li+  Li57  1  0.00000000  0.41666667  0.75000000  1.0
  Li+  Li58  1  0.00000000  0.91666667  0.25000000  1.0
  Li+  Li59  1  0.00000000  0.91666667  0.75000000  1.0
  Li+  Li60  1  0.50000000  0.66666667  0.00000000  1.0
  Li+  Li61  1  0.50000000  0.66666667  0.50000000  1.0
  Li+  Li62  1  0.50000000  0.16666667  0.00000000  1.0
  Li+  Li63  1  0.50000000  0.16666667  0.50000000  1.0
  Ti4+  Ti64  1  0.36487000  0.32604167  0.26614500  1.0
  Ti4+  Ti65  1  0.36487000  0.32604167  0.76614500  1.0
  Ti4+  Ti66  1  0.36487000  0.82604167  0.26614500  1.0
  Ti4+  Ti67  1  0.36487000  0.82604167  0.76614500  1.0
  Ti4+  Ti68  1  0.13513000  0.24233167  0.48385500  1.0
  Ti4+  Ti69  1  0.13513000  0.24233167  0.98385500  1.0
  Ti4+  Ti70  1  0.13513000  0.74233167  0.48385500  1.0
  Ti4+  Ti71  1  0.13513000  0.74233167  0.98385500  1.0
  Ti4+  Ti72  1  0.63513000  0.50729167  0.23385500  1.0
  Ti4+  Ti73  1  0.63513000  0.50729167  0.73385500  1.0
  Ti4+  Ti74  1  0.63513000  0.00729167  0.23385500  1.0
  Ti4+  Ti75  1  0.63513000  0.00729167  0.73385500  1.0
  Ti4+  Ti76  1  0.86487000  0.59100167  0.01614500  1.0
  Ti4+  Ti77  1  0.86487000  0.59100167  0.51614500  1.0
  Ti4+  Ti78  1  0.86487000  0.09100167  0.01614500  1.0
  Ti4+  Ti79  1  0.86487000  0.09100167  0.51614500  1.0
  S2-  S80  1  0.00529000  0.31148667  0.08863500  1.0
  S2-  S81  1  0.00529000  0.31148667  0.58863500  1.0
  S2-  S82  1  0.00529000  0.81148667  0.08863500  1.0
  S2-  S83  1  0.00529000  0.81148667  0.58863500  1.0
  S2-  S84  1  0.49471000  0.22549667  0.16136500  1.0
  S2-  S85  1  0.49471000  0.22549667  0.66136500  1.0
  S2-  S86  1  0.49471000  0.72549667  0.16136500  1.0
  S2-  S87  1  0.49471000  0.72549667  0.66136500  1.0
  S2-  S88  1  0.99471000  0.52184667  0.41136500  1.0
  S2-  S89  1  0.99471000  0.52184667  0.91136500  1.0
  S2-  S90  1  0.99471000  0.02184667  0.41136500  1.0
  S2-  S91  1  0.99471000  0.02184667  0.91136500  1.0
  S2-  S92  1  0.50529000  0.60783667  0.33863500  1.0
  S2-  S93  1  0.50529000  0.60783667  0.83863500  1.0
  S2-  S94  1  0.50529000  0.10783667  0.33863500  1.0
  S2-  S95  1  0.50529000  0.10783667  0.83863500  1.0
  S2-  S96  1  0.25056000  0.45421667  0.25390000  1.0
  S2-  S97  1  0.25056000  0.45421667  0.75390000  1.0
  S2-  S98  1  0.25056000  0.95421667  0.25390000  1.0
  S2-  S99  1  0.25056000  0.95421667  0.75390000  1.0
  S2-  S100  1  0.24944000  0.32559667  0.49610000  1.0
  S2-  S101  1  0.24944000  0.32559667  0.99610000  1.0
  S2-  S102  1  0.24944000  0.82559667  0.49610000  1.0
  S2-  S103  1  0.24944000  0.82559667  0.99610000  1.0
  S2-  S104  1  0.74944000  0.37911667  0.24610000  1.0
  S2-  S105  1  0.74944000  0.37911667  0.74610000  1.0
  S2-  S106  1  0.74944000  0.87911667  0.24610000  1.0
  S2-  S107  1  0.74944000  0.87911667  0.74610000  1.0
  S2-  S108  1  0.75056000  0.50773667  0.00390000  1.0
  S2-  S109  1  0.75056000  0.50773667  0.50390000  1.0
  S2-  S110  1  0.75056000  0.00773667  0.00390000  1.0
  S2-  S111  1  0.75056000  0.00773667  0.50390000  1.0
  S2-  S112  1  0.19186000  0.28696667  0.27420000  1.0
  S2-  S113  1  0.19186000  0.28696667  0.77420000  1.0
  S2-  S114  1  0.19186000  0.78696667  0.27420000  1.0
  S2-  S115  1  0.19186000  0.78696667  0.77420000  1.0
  S2-  S116  1  0.30814000  0.60869667  0.47580000  1.0
  S2-  S117  1  0.30814000  0.60869667  0.97580000  1.0
  S2-  S118  1  0.30814000  0.10869667  0.47580000  1.0
  S2-  S119  1  0.30814000  0.10869667  0.97580000  1.0
  S2-  S120  1  0.80814000  0.54636667  0.22580000  1.0
  S2-  S121  1  0.80814000  0.54636667  0.72580000  1.0
  S2-  S122  1  0.80814000  0.04636667  0.22580000  1.0
  S2-  S123  1  0.80814000  0.04636667  0.72580000  1.0
  S2-  S124  1  0.69186000  0.22463667  0.02420000  1.0
  S2-  S125  1  0.69186000  0.22463667  0.52420000  1.0
  S2-  S126  1  0.69186000  0.72463667  0.02420000  1.0
  S2-  S127  1  0.69186000  0.72463667  0.52420000  1.0
  S2-  S128  1  0.47990000  0.49982167  0.12596000  1.0
  S2-  S129  1  0.47990000  0.49982167  0.62596000  1.0
  S2-  S130  1  0.47990000  0.99982167  0.12596000  1.0
  S2-  S131  1  0.47990000  0.99982167  0.62596000  1.0
  S2-  S132  1  0.02010000  0.61381167  0.12404000  1.0
  S2-  S133  1  0.02010000  0.61381167  0.62404000  1.0
  S2-  S134  1  0.02010000  0.11381167  0.12404000  1.0
  S2-  S135  1  0.02010000  0.11381167  0.62404000  1.0
  S2-  S136  1  0.52010000  0.33351167  0.37404000  1.0
  S2-  S137  1  0.52010000  0.33351167  0.87404000  1.0
  S2-  S138  1  0.52010000  0.83351167  0.37404000  1.0
  S2-  S139  1  0.52010000  0.83351167  0.87404000  1.0
  S2-  S140  1  0.97990000  0.21952167  0.37596000  1.0
  S2-  S141  1  0.97990000  0.21952167  0.87596000  1.0
  S2-  S142  1  0.97990000  0.71952167  0.37596000  1.0
  S2-  S143  1  0.97990000  0.71952167  0.87596000  1.0
