# generated using pymatgen
data_Na5Li3(TiS4)2
_symmetry_space_group_name_H-M   'P 1'
_cell_length_a   19.28080000
_cell_length_b   10.02458013
_cell_length_c   20.04829028
_cell_angle_alpha   74.10005552
_cell_angle_beta   61.25848296
_cell_angle_gamma   61.25984645
_symmetry_Int_Tables_number   1
_chemical_formula_structural   Na5Li3(TiS4)2
_chemical_formula_sum   'Na40 Li24 Ti16 S64'
_cell_volume   2974.41140206
_cell_formula_units_Z   8
loop_
 _symmetry_equiv_pos_site_id
 _symmetry_equiv_pos_as_xyz
  1  'x, y, z'
loop_
 _atom_type_symbol
 _atom_type_oxidation_number
  Na+  1.0
  Li+  1.0
  Ti4+  4.0
  S2-  -2.0
loop_
 _atom_site_type_symbol
 _atom_site_label
 _atom_site_symmetry_multiplicity
 _atom_site_fract_x
 _atom_site_fract_y
 _atom_site_fract_z
 _atom_site_occupancy
  Na+  Na1  1  0.19595500  0.72311000  0.49226500  1.0
  Na+  Na1  1  0.19595500  0.72311000  0.99226500  1.0
  Na+  Na1  1  0.69595500  0.72311000  0.49226500  1.0
  Na+  Na1  1  0.69595500  0.72311000  0.99226500  1.0
  Na+  Na1  1  0.04977500  0.77689000  0.25773500  1.0
  Na+  Na1  1  0.04977500  0.77689000  0.75773500  1.0
  Na+  Na1  1  0.54977500  0.77689000  0.25773500  1.0
  Na+  Na1  1  0.54977500  0.77689000  0.75773500  1.0
  Na+  Na1  1  0.30404500  0.27689000  0.00773500  1.0
  Na+  Na1  1  0.30404500  0.27689000  0.50773500  1.0
  Na+  Na1  1  0.80404500  0.27689000  0.00773500  1.0
  Na+  Na1  1  0.80404500  0.27689000  0.50773500  1.0
  Na+  Na1  1  0.45022500  0.22311000  0.24226500  1.0
  Na+  Na1  1  0.45022500  0.22311000  0.74226500  1.0
  Na+  Na1  1  0.95022500  0.22311000  0.24226500  1.0
  Na+  Na1  1  0.95022500  0.22311000  0.74226500  1.0
  Na+  Na2  1  0.29312500  0.03504000  0.38271000  1.0
  Na+  Na2  1  0.29312500  0.03504000  0.88271000  1.0
  Na+  Na2  1  0.79312500  0.03504000  0.38271000  1.0
  Na+  Na2  1  0.79312500  0.03504000  0.88271000  1.0
  Na+  Na2  1  0.19335500  0.46496000  0.36729000  1.0
  Na+  Na2  1  0.19335500  0.46496000  0.86729000  1.0
  Na+  Na2  1  0.69335500  0.46496000  0.36729000  1.0
  Na+  Na2  1  0.69335500  0.46496000  0.86729000  1.0
  Na+  Na2  1  0.20687500  0.96496000  0.11729000  1.0
  Na+  Na2  1  0.20687500  0.96496000  0.61729000  1.0
  Na+  Na2  1  0.70687500  0.96496000  0.11729000  1.0
  Na+  Na2  1  0.70687500  0.96496000  0.61729000  1.0
  Na+  Na2  1  0.30664500  0.53504000  0.13271000  1.0
  Na+  Na2  1  0.30664500  0.53504000  0.63271000  1.0
  Na+  Na2  1  0.80664500  0.53504000  0.13271000  1.0
  Na+  Na2  1  0.80664500  0.53504000  0.63271000  1.0
  Na+  Na3  1  0.49609000  0.75000000  0.12500000  1.0
  Na+  Na3  1  0.49609000  0.75000000  0.62500000  1.0
  Na+  Na3  1  0.99609000  0.75000000  0.12500000  1.0
  Na+  Na3  1  0.99609000  0.75000000  0.62500000  1.0
  Na+  Na3  1  0.00391000  0.25000000  0.37500000  1.0
  Na+  Na3  1  0.00391000  0.25000000  0.87500000  1.0
  Na+  Na3  1  0.50391000  0.25000000  0.37500000  1.0
  Na+  Na3  1  0.50391000  0.25000000  0.87500000  1.0
  Li+  Li1  1  0.40290000  0.12720000  0.12910000  1.0
  Li+  Li1  1  0.40290000  0.12720000  0.62910000  1.0
  Li+  Li1  1  0.90290000  0.12720000  0.12910000  1.0
  Li+  Li1  1  0.90290000  0.12720000  0.62910000  1.0
  Li+  Li1  1  0.09560000  0.37280000  0.12090000  1.0
  Li+  Li1  1  0.09560000  0.37280000  0.62090000  1.0
  Li+  Li1  1  0.59560000  0.37280000  0.12090000  1.0
  Li+  Li1  1  0.59560000  0.37280000  0.62090000  1.0
  Li+  Li1  1  0.09710000  0.87280000  0.37090000  1.0
  Li+  Li1  1  0.09710000  0.87280000  0.87090000  1.0
  Li+  Li1  1  0.59710000  0.87280000  0.37090000  1.0
  Li+  Li1  1  0.59710000  0.87280000  0.87090000  1.0
  Li+  Li1  1  0.40440000  0.62720000  0.37910000  1.0
  Li+  Li1  1  0.40440000  0.62720000  0.87910000  1.0
  Li+  Li1  1  0.90440000  0.62720000  0.37910000  1.0
  Li+  Li1  1  0.90440000  0.62720000  0.87910000  1.0
  Li+  Li2  1  0.25000000  0.00000000  0.25000000  1.0
  Li+  Li2  1  0.25000000  0.00000000  0.75000000  1.0
  Li+  Li2  1  0.75000000  0.00000000  0.25000000  1.0
  Li+  Li2  1  0.75000000  0.00000000  0.75000000  1.0
  Li+  Li2  1  0.00000000  0.50000000  0.00000000  1.0
  Li+  Li2  1  0.00000000  0.50000000  0.50000000  1.0
  Li+  Li2  1  0.50000000  0.50000000  0.00000000  1.0
  Li+  Li2  1  0.50000000  0.50000000  0.50000000  1.0
  Ti4+  Ti1  1  0.34062500  0.63513000  0.26614500  1.0
  Ti4+  Ti1  1  0.34062500  0.63513000  0.76614500  1.0
  Ti4+  Ti1  1  0.84062500  0.63513000  0.26614500  1.0
  Ti4+  Ti1  1  0.84062500  0.63513000  0.76614500  1.0
  Ti4+  Ti1  1  0.42433500  0.86487000  0.48385500  1.0
  Ti4+  Ti1  1  0.42433500  0.86487000  0.98385500  1.0
  Ti4+  Ti1  1  0.92433500  0.86487000  0.48385500  1.0
  Ti4+  Ti1  1  0.92433500  0.86487000  0.98385500  1.0
  Ti4+  Ti1  1  0.15937500  0.36487000  0.23385500  1.0
  Ti4+  Ti1  1  0.15937500  0.36487000  0.73385500  1.0
  Ti4+  Ti1  1  0.65937500  0.36487000  0.23385500  1.0
  Ti4+  Ti1  1  0.65937500  0.36487000  0.73385500  1.0
  Ti4+  Ti1  1  0.07566500  0.13513000  0.01614500  1.0
  Ti4+  Ti1  1  0.07566500  0.13513000  0.51614500  1.0
  Ti4+  Ti1  1  0.57566500  0.13513000  0.01614500  1.0
  Ti4+  Ti1  1  0.57566500  0.13513000  0.51614500  1.0
  S2-  S1  1  0.35518000  0.99471000  0.08863500  1.0
  S2-  S1  1  0.35518000  0.99471000  0.58863500  1.0
  S2-  S1  1  0.85518000  0.99471000  0.08863500  1.0
  S2-  S1  1  0.85518000  0.99471000  0.58863500  1.0
  S2-  S1  1  0.44117000  0.50529000  0.16136500  1.0
  S2-  S1  1  0.44117000  0.50529000  0.66136500  1.0
  S2-  S1  1  0.94117000  0.50529000  0.16136500  1.0
  S2-  S1  1  0.94117000  0.50529000  0.66136500  1.0
  S2-  S1  1  0.14482000  0.00529000  0.41136500  1.0
  S2-  S1  1  0.14482000  0.00529000  0.91136500  1.0
  S2-  S1  1  0.64482000  0.00529000  0.41136500  1.0
  S2-  S1  1  0.64482000  0.00529000  0.91136500  1.0
  S2-  S1  1  0.05883000  0.49471000  0.33863500  1.0
  S2-  S1  1  0.05883000  0.49471000  0.83863500  1.0
  S2-  S1  1  0.55883000  0.49471000  0.33863500  1.0
  S2-  S1  1  0.55883000  0.49471000  0.83863500  1.0
  S2-  S2  1  0.21245000  0.74944000  0.25390000  1.0
  S2-  S2  1  0.21245000  0.74944000  0.75390000  1.0
  S2-  S2  1  0.71245000  0.74944000  0.25390000  1.0
  S2-  S2  1  0.71245000  0.74944000  0.75390000  1.0
  S2-  S2  1  0.34107000  0.75056000  0.49610000  1.0
  S2-  S2  1  0.34107000  0.75056000  0.99610000  1.0
  S2-  S2  1  0.84107000  0.75056000  0.49610000  1.0
  S2-  S2  1  0.84107000  0.75056000  0.99610000  1.0
  S2-  S2  1  0.28755000  0.25056000  0.24610000  1.0
  S2-  S2  1  0.28755000  0.25056000  0.74610000  1.0
  S2-  S2  1  0.78755000  0.25056000  0.24610000  1.0
  S2-  S2  1  0.78755000  0.25056000  0.74610000  1.0
  S2-  S2  1  0.15893000  0.24944000  0.00390000  1.0
  S2-  S2  1  0.15893000  0.24944000  0.50390000  1.0
  S2-  S2  1  0.65893000  0.24944000  0.00390000  1.0
  S2-  S2  1  0.65893000  0.24944000  0.50390000  1.0
  S2-  S3  1  0.37970000  0.80814000  0.27420000  1.0
  S2-  S3  1  0.37970000  0.80814000  0.77420000  1.0
  S2-  S3  1  0.87970000  0.80814000  0.27420000  1.0
  S2-  S3  1  0.87970000  0.80814000  0.77420000  1.0
  S2-  S3  1  0.05797000  0.69186000  0.47580000  1.0
  S2-  S3  1  0.05797000  0.69186000  0.97580000  1.0
  S2-  S3  1  0.55797000  0.69186000  0.47580000  1.0
  S2-  S3  1  0.55797000  0.69186000  0.97580000  1.0
  S2-  S3  1  0.12030000  0.19186000  0.22580000  1.0
  S2-  S3  1  0.12030000  0.19186000  0.72580000  1.0
  S2-  S3  1  0.62030000  0.19186000  0.22580000  1.0
  S2-  S3  1  0.62030000  0.19186000  0.72580000  1.0
  S2-  S3  1  0.44203000  0.30814000  0.02420000  1.0
  S2-  S3  1  0.44203000  0.30814000  0.52420000  1.0
  S2-  S3  1  0.94203000  0.30814000  0.02420000  1.0
  S2-  S3  1  0.94203000  0.30814000  0.52420000  1.0
  S2-  S4  1  0.16684500  0.52010000  0.12596000  1.0
  S2-  S4  1  0.16684500  0.52010000  0.62596000  1.0
  S2-  S4  1  0.66684500  0.52010000  0.12596000  1.0
  S2-  S4  1  0.66684500  0.52010000  0.62596000  1.0
  S2-  S4  1  0.05285500  0.97990000  0.12404000  1.0
  S2-  S4  1  0.05285500  0.97990000  0.62404000  1.0
  S2-  S4  1  0.55285500  0.97990000  0.12404000  1.0
  S2-  S4  1  0.55285500  0.97990000  0.62404000  1.0
  S2-  S4  1  0.33315500  0.47990000  0.37404000  1.0
  S2-  S4  1  0.33315500  0.47990000  0.87404000  1.0
  S2-  S4  1  0.83315500  0.47990000  0.37404000  1.0
  S2-  S4  1  0.83315500  0.47990000  0.87404000  1.0
  S2-  S4  1  0.44714500  0.02010000  0.37596000  1.0
  S2-  S4  1  0.44714500  0.02010000  0.87596000  1.0
  S2-  S4  1  0.94714500  0.02010000  0.37596000  1.0
  S2-  S4  1  0.94714500  0.02010000  0.87596000  1.0
