# generated using pymatgen
data_Li5GaO4
_symmetry_space_group_name_H-M   'P 1'
_cell_length_a   18.18800000
_cell_length_b   9.20200000
_cell_length_c   9.17300000
_cell_angle_alpha   90.00000000
_cell_angle_beta   90.00000000
_cell_angle_gamma   90.00000000
_symmetry_Int_Tables_number   1
_chemical_formula_structural   Li5GaO4
_chemical_formula_sum   'Li80 Ga16 O64'
_cell_volume   1535.24809785
_cell_formula_units_Z   16
loop_
 _symmetry_equiv_pos_site_id
 _symmetry_equiv_pos_as_xyz
  1  'x, y, z'
loop_
 _atom_type_symbol
 _atom_type_oxidation_number
  Li+  1.0
  Ga3+  3.0
  O2-  -2.0
loop_
 _atom_site_type_symbol
 _atom_site_label
 _atom_site_symmetry_multiplicity
 _atom_site_fract_x
 _atom_site_fract_y
 _atom_site_fract_z
 _atom_site_occupancy
  Li+  Li0  1  0.42183020  0.09140059  0.34338839  1.0
  Li+  Li1  1  0.92350000  0.09100000  0.34300000  1.0
  Li+  Li2  1  0.32858650  0.91080494  0.84179807  1.0
  Li+  Li3  1  0.82650000  0.90900000  0.84300000  1.0
  Li+  Li4  1  0.17350000  0.40900000  0.15700000  1.0
  Li+  Li5  1  0.67350000  0.40900000  0.15700000  1.0
  Li+  Li6  1  0.07650000  0.59100000  0.65700000  1.0
  Li+  Li7  1  0.57650000  0.59100000  0.65700000  1.0
  Li+  Li8  1  0.07650000  0.90900000  0.15700000  1.0
  Li+  Li9  1  0.57650000  0.90900000  0.15700000  1.0
  Li+  Li10  1  0.17350000  0.09100000  0.65700000  1.0
  Li+  Li11  1  0.67350000  0.09100000  0.65700000  1.0
  Li+  Li12  1  0.32650000  0.59100000  0.34300000  1.0
  Li+  Li13  1  0.82650000  0.59100000  0.34300000  1.0
  Li+  Li14  1  0.42350000  0.40900000  0.84300000  1.0
  Li+  Li15  1  0.92350000  0.40900000  0.84300000  1.0
  Li+  Li16  1  0.45750000  0.83900000  0.38100000  1.0
  Li+  Li17  1  0.95490480  0.83929115  0.37899090  1.0
  Li+  Li18  1  0.29250000  0.16100000  0.88100000  1.0
  Li+  Li19  1  0.79250000  0.16100000  0.88100000  1.0
  Li+  Li20  1  0.20750000  0.66100000  0.11900000  1.0
  Li+  Li21  1  0.70871853  0.66102517  0.12112456  1.0
  Li+  Li22  1  0.04230951  0.33749622  0.61540435  1.0
  Li+  Li23  1  0.54250000  0.33900000  0.61900000  1.0
  Li+  Li24  1  0.04250000  0.16100000  0.11900000  1.0
  Li+  Li25  1  0.54250000  0.16100000  0.11900000  1.0
  Li+  Li26  1  0.21139481  0.83762084  0.62131192  1.0
  Li+  Li27  1  0.70750000  0.83900000  0.61900000  1.0
  Li+  Li28  1  0.28663930  0.33942733  0.38231906  1.0
  Li+  Li29  1  0.79250000  0.33900000  0.38100000  1.0
  Li+  Li30  1  0.45750000  0.66100000  0.88100000  1.0
  Li+  Li31  1  0.95154649  0.66376951  0.88026181  1.0
  Li+  Li32  1  0.45350000  0.15300000  0.60600000  1.0
  Li+  Li33  1  0.95350000  0.15300000  0.60600000  1.0
  Li+  Li34  1  0.29650000  0.84700000  0.10600000  1.0
  Li+  Li35  1  0.79650000  0.84700000  0.10600000  1.0
  Li+  Li36  1  0.20350000  0.34700000  0.89400000  1.0
  Li+  Li37  1  0.70528832  0.34747355  0.89574269  1.0
  Li+  Li38  1  0.04650000  0.65300000  0.39400000  1.0
  Li+  Li39  1  0.54650000  0.65300000  0.39400000  1.0
  Li+  Li40  1  0.04650000  0.84700000  0.89400000  1.0
  Li+  Li41  1  0.54650000  0.84700000  0.89400000  1.0
  Li+  Li42  1  0.20350000  0.15300000  0.39400000  1.0
  Li+  Li43  1  0.70573714  0.15529369  0.39490831  1.0
  Li+  Li44  1  0.29650000  0.65300000  0.60600000  1.0
  Li+  Li45  1  0.79437220  0.65215637  0.60620104  1.0
  Li+  Li46  1  0.45350000  0.34700000  0.10600000  1.0
  Li+  Li47  1  0.95350000  0.34700000  0.10600000  1.0
  Li+  Li48  1  0.41800000  0.89100000  0.64800000  1.0
  Li+  Li49  1  0.91800000  0.89100000  0.64800000  1.0
  Li+  Li50  1  0.33033559  0.10637239  0.15011985  1.0
  Li+  Li51  1  0.83200000  0.10900000  0.14800000  1.0
  Li+  Li52  1  0.16800000  0.60900000  0.85200000  1.0
  Li+  Li53  1  0.66961771  0.61567300  0.85047190  1.0
  Li+  Li54  1  0.08200000  0.39100000  0.35200000  1.0
  Li+  Li55  1  0.58200000  0.39100000  0.35200000  1.0
  Li+  Li56  1  0.08200000  0.10900000  0.85200000  1.0
  Li+  Li57  1  0.58200000  0.10900000  0.85200000  1.0
  Li+  Li58  1  0.16800000  0.89100000  0.35200000  1.0
  Li+  Li59  1  0.66800000  0.89100000  0.35200000  1.0
  Li+  Li60  1  0.33691828  0.38978653  0.65055844  1.0
  Li+  Li61  1  0.83200000  0.39100000  0.64800000  1.0
  Li+  Li62  1  0.41679363  0.61007294  0.15224482  1.0
  Li+  Li63  1  0.91902582  0.60866262  0.14793273  1.0
  Li+  Li64  1  0.43796445  0.61395172  0.61925420  1.0
  Li+  Li65  1  0.93800000  0.61700000  0.61400000  1.0
  Li+  Li66  1  0.31200000  0.38300000  0.11400000  1.0
  Li+  Li67  1  0.81200000  0.38300000  0.11400000  1.0
  Li+  Li68  1  0.18800000  0.88300000  0.88600000  1.0
  Li+  Li69  1  0.68800000  0.88300000  0.88600000  1.0
  Li+  Li70  1  0.06200000  0.11700000  0.38600000  1.0
  Li+  Li71  1  0.56200000  0.11700000  0.38600000  1.0
  Li+  Li72  1  0.06200000  0.38300000  0.88600000  1.0
  Li+  Li73  1  0.56380384  0.38807676  0.89118055  1.0
  Li+  Li74  1  0.18800000  0.61700000  0.38600000  1.0
  Li+  Li75  1  0.68800000  0.61700000  0.38600000  1.0
  Li+  Li76  1  0.31200000  0.11700000  0.61400000  1.0
  Li+  Li77  1  0.81200000  0.11700000  0.61400000  1.0
  Li+  Li78  1  0.43800000  0.88300000  0.11400000  1.0
  Li+  Li79  1  0.93800000  0.88300000  0.11400000  1.0
  Ga3+  Ga80  1  0.44145000  0.38150000  0.39500000  1.0
  Ga3+  Ga81  1  0.94145000  0.38150000  0.39500000  1.0
  Ga3+  Ga82  1  0.30855000  0.61850000  0.89500000  1.0
  Ga3+  Ga83  1  0.80855000  0.61850000  0.89500000  1.0
  Ga3+  Ga84  1  0.19145000  0.11850000  0.10500000  1.0
  Ga3+  Ga85  1  0.69145000  0.11850000  0.10500000  1.0
  Ga3+  Ga86  1  0.05481777  0.87881166  0.60533006  1.0
  Ga3+  Ga87  1  0.55855000  0.88150000  0.60500000  1.0
  Ga3+  Ga88  1  0.05855000  0.61850000  0.10500000  1.0
  Ga3+  Ga89  1  0.55855000  0.61850000  0.10500000  1.0
  Ga3+  Ga90  1  0.19145000  0.38150000  0.60500000  1.0
  Ga3+  Ga91  1  0.68482641  0.38146699  0.60549264  1.0
  Ga3+  Ga92  1  0.30855000  0.88150000  0.39500000  1.0
  Ga3+  Ga93  1  0.80855000  0.88150000  0.39500000  1.0
  Ga3+  Ga94  1  0.44145000  0.11850000  0.89500000  1.0
  Ga3+  Ga95  1  0.94145000  0.11850000  0.89500000  1.0
  O2-  O96  1  0.00600000  0.49500000  0.50000000  1.0
  O2-  O97  1  0.50600000  0.49500000  0.50000000  1.0
  O2-  O98  1  0.24400000  0.50500000  0.00000000  1.0
  O2-  O99  1  0.74400000  0.50500000  0.00000000  1.0
  O2-  O100  1  0.25600000  0.00500000  0.00000000  1.0
  O2-  O101  1  0.75600000  0.00500000  0.00000000  1.0
  O2-  O102  1  0.49400000  0.99500000  0.50000000  1.0
  O2-  O103  1  0.99645343  0.99677957  0.49616853  1.0
  O2-  O104  1  0.49400000  0.50500000  0.00000000  1.0
  O2-  O105  1  0.99400000  0.50500000  0.00000000  1.0
  O2-  O106  1  0.25600000  0.49500000  0.50000000  1.0
  O2-  O107  1  0.75600000  0.49500000  0.50000000  1.0
  O2-  O108  1  0.24400000  0.99500000  0.50000000  1.0
  O2-  O109  1  0.74400000  0.99500000  0.50000000  1.0
  O2-  O110  1  0.00600000  0.00500000  0.00000000  1.0
  O2-  O111  1  0.50530115  0.00710399  0.99967592  1.0
  O2-  O112  1  0.49638671  0.25905822  0.28879246  1.0
  O2-  O113  1  0.00020371  0.26042925  0.28652129  1.0
  O2-  O114  1  0.25213424  0.74154603  0.79209429  1.0
  O2-  O115  1  0.74638140  0.74106160  0.78625119  1.0
  O2-  O116  1  0.24841668  0.24770610  0.21223361  1.0
  O2-  O117  1  0.74900000  0.24300000  0.21200000  1.0
  O2-  O118  1  0.99909402  0.75517732  0.70988843  1.0
  O2-  O119  1  0.50100000  0.75700000  0.71200000  1.0
  O2-  O120  1  0.00100000  0.74300000  0.21200000  1.0
  O2-  O121  1  0.50100000  0.74300000  0.21200000  1.0
  O2-  O122  1  0.24900000  0.25700000  0.71200000  1.0
  O2-  O123  1  0.74464035  0.26106332  0.71046512  1.0
  O2-  O124  1  0.25360053  0.75721690  0.28645132  1.0
  O2-  O125  1  0.75100000  0.75700000  0.28800000  1.0
  O2-  O126  1  0.49900000  0.24300000  0.78800000  1.0
  O2-  O127  1  0.99681290  0.24519702  0.78855228  1.0
  O2-  O128  1  0.38157907  0.46393120  0.26378925  1.0
  O2-  O129  1  0.88012044  0.46421653  0.26334570  1.0
  O2-  O130  1  0.37100000  0.53700000  0.76200000  1.0
  O2-  O131  1  0.87100000  0.53700000  0.76200000  1.0
  O2-  O132  1  0.12764180  0.03567712  0.23678384  1.0
  O2-  O133  1  0.62900000  0.03700000  0.23800000  1.0
  O2-  O134  1  0.12100000  0.96300000  0.73800000  1.0
  O2-  O135  1  0.62100000  0.96300000  0.73800000  1.0
  O2-  O136  1  0.12100000  0.53700000  0.23800000  1.0
  O2-  O137  1  0.61700632  0.54090153  0.23292891  1.0
  O2-  O138  1  0.12900000  0.46300000  0.73800000  1.0
  O2-  O139  1  0.62621806  0.46544791  0.73738627  1.0
  O2-  O140  1  0.37100000  0.96300000  0.26200000  1.0
  O2-  O141  1  0.87380047  0.96401823  0.25727465  1.0
  O2-  O142  1  0.37900000  0.03700000  0.76200000  1.0
  O2-  O143  1  0.87900000  0.03700000  0.76200000  1.0
  O2-  O144  1  0.38200000  0.25600000  0.49600000  1.0
  O2-  O145  1  0.88200000  0.25600000  0.49600000  1.0
  O2-  O146  1  0.36572011  0.74272980  0.99710102  1.0
  O2-  O147  1  0.86800000  0.74400000  0.99600000  1.0
  O2-  O148  1  0.13200000  0.24400000  0.00400000  1.0
  O2-  O149  1  0.63200000  0.24400000  0.00400000  1.0
  O2-  O150  1  0.11800000  0.75600000  0.50400000  1.0
  O2-  O151  1  0.61800000  0.75600000  0.50400000  1.0
  O2-  O152  1  0.11771614  0.74639559  0.00477954  1.0
  O2-  O153  1  0.61800000  0.74400000  0.00400000  1.0
  O2-  O154  1  0.13200000  0.25600000  0.50400000  1.0
  O2-  O155  1  0.63152048  0.25579656  0.50293788  1.0
  O2-  O156  1  0.36800000  0.75600000  0.49600000  1.0
  O2-  O157  1  0.86800000  0.75600000  0.49600000  1.0
  O2-  O158  1  0.38200000  0.24400000  0.99600000  1.0
  O2-  O159  1  0.88200000  0.24400000  0.99600000  1.0
