# generated using pymatgen
data_Li5GaO4
_symmetry_space_group_name_H-M   'P 1'
_cell_length_a   9.25051282
_cell_length_b   18.34169052
_cell_length_c   9.27975787
_cell_angle_alpha   90.00000000
_cell_angle_beta   90.00000000
_cell_angle_gamma   90.00000000
_symmetry_Int_Tables_number   1
_chemical_formula_structural   Li5GaO4
_chemical_formula_sum   'Li80 Ga16 O64'
_cell_volume   1574.49691958
_cell_formula_units_Z   16
loop_
 _symmetry_equiv_pos_site_id
 _symmetry_equiv_pos_as_xyz
  1  'x, y, z'
loop_
 _atom_type_symbol
 _atom_type_oxidation_number
  Li+  1.0
  Ga3+  3.0
  O2-  -2.0
loop_
 _atom_site_type_symbol
 _atom_site_label
 _atom_site_symmetry_multiplicity
 _atom_site_fract_x
 _atom_site_fract_y
 _atom_site_fract_z
 _atom_site_occupancy
  Li+  Li0  1  0.59300000  0.24316667  0.90900000  1.0
  Li+  Li1  1  0.59300000  0.74316667  0.90900000  1.0
  Li+  Li2  1  0.09300000  0.34016667  0.09100000  1.0
  Li+  Li3  1  0.09300000  0.84016667  0.09100000  1.0
  Li+  Li4  1  0.40700000  0.49316667  0.59100000  1.0
  Li+  Li5  1  0.40700000  0.99316667  0.59100000  1.0
  Li+  Li6  1  0.90700000  0.59016667  0.40900000  1.0
  Li+  Li7  1  0.90700000  0.09016667  0.40900000  1.0
  Li+  Li8  1  0.40700000  0.59016667  0.09100000  1.0
  Li+  Li9  1  0.40700000  0.09016667  0.09100000  1.0
  Li+  Li10  1  0.90700000  0.49316667  0.90900000  1.0
  Li+  Li11  1  0.90700000  0.99316667  0.90900000  1.0
  Li+  Li12  1  0.59300000  0.34016667  0.40900000  1.0
  Li+  Li13  1  0.59300000  0.84016667  0.40900000  1.0
  Li+  Li14  1  0.09300000  0.24316667  0.59100000  1.0
  Li+  Li15  1  0.09300000  0.74316667  0.59100000  1.0
  Li+  Li16  1  0.63100000  0.20916667  0.16100000  1.0
  Li+  Li17  1  0.63100000  0.70916667  0.16100000  1.0
  Li+  Li18  1  0.13100000  0.37416667  0.83900000  1.0
  Li+  Li19  1  0.13100000  0.87416667  0.83900000  1.0
  Li+  Li20  1  0.36900000  0.45916667  0.33900000  1.0
  Li+  Li21  1  0.36900000  0.95916667  0.33900000  1.0
  Li+  Li22  1  0.86900000  0.62416667  0.66100000  1.0
  Li+  Li23  1  0.86900000  0.12416667  0.66100000  1.0
  Li+  Li24  1  0.36900000  0.62416667  0.83900000  1.0
  Li+  Li25  1  0.36900000  0.12416667  0.83900000  1.0
  Li+  Li26  1  0.86900000  0.45916667  0.16100000  1.0
  Li+  Li27  1  0.86900000  0.95916667  0.16100000  1.0
  Li+  Li28  1  0.63100000  0.37416667  0.66100000  1.0
  Li+  Li29  1  0.63100000  0.87416667  0.66100000  1.0
  Li+  Li30  1  0.13100000  0.20916667  0.33900000  1.0
  Li+  Li31  1  0.13100000  0.70916667  0.33900000  1.0
  Li+  Li32  1  0.85600000  0.21316667  0.84700000  1.0
  Li+  Li33  1  0.85600000  0.71316667  0.84700000  1.0
  Li+  Li34  1  0.35600000  0.37016667  0.15300000  1.0
  Li+  Li35  1  0.35600000  0.87016667  0.15300000  1.0
  Li+  Li36  1  0.14400000  0.46316667  0.65300000  1.0
  Li+  Li37  1  0.14400000  0.96316667  0.65300000  1.0
  Li+  Li38  1  0.64400000  0.62016667  0.34700000  1.0
  Li+  Li39  1  0.64400000  0.12016667  0.34700000  1.0
  Li+  Li40  1  0.14400000  0.62016667  0.15300000  1.0
  Li+  Li41  1  0.14400000  0.12016667  0.15300000  1.0
  Li+  Li42  1  0.64400000  0.46316667  0.84700000  1.0
  Li+  Li43  1  0.64400000  0.96316667  0.84700000  1.0
  Li+  Li44  1  0.85600000  0.37016667  0.34700000  1.0
  Li+  Li45  1  0.85600000  0.87016667  0.34700000  1.0
  Li+  Li46  1  0.35600000  0.21316667  0.65300000  1.0
  Li+  Li47  1  0.35600000  0.71316667  0.65300000  1.0
  Li+  Li48  1  0.89800000  0.24866667  0.10900000  1.0
  Li+  Li49  1  0.89800000  0.74866667  0.10900000  1.0
  Li+  Li50  1  0.39800000  0.33466667  0.89100000  1.0
  Li+  Li51  1  0.39800000  0.83466667  0.89100000  1.0
  Li+  Li52  1  0.10200000  0.49866667  0.39100000  1.0
  Li+  Li53  1  0.10200000  0.99866667  0.39100000  1.0
  Li+  Li54  1  0.60200000  0.58466667  0.60900000  1.0
  Li+  Li55  1  0.60200000  0.08466667  0.60900000  1.0
  Li+  Li56  1  0.10200000  0.58466667  0.89100000  1.0
  Li+  Li57  1  0.10200000  0.08466667  0.89100000  1.0
  Li+  Li58  1  0.60200000  0.49866667  0.10900000  1.0
  Li+  Li59  1  0.60200000  0.99866667  0.10900000  1.0
  Li+  Li60  1  0.89800000  0.33466667  0.60900000  1.0
  Li+  Li61  1  0.89800000  0.83466667  0.60900000  1.0
  Li+  Li62  1  0.39800000  0.24866667  0.39100000  1.0
  Li+  Li63  1  0.39800000  0.74866667  0.39100000  1.0
  Li+  Li64  1  0.86400000  0.22866667  0.38300000  1.0
  Li+  Li65  1  0.86400000  0.72866667  0.38300000  1.0
  Li+  Li66  1  0.36400000  0.35466667  0.61700000  1.0
  Li+  Li67  1  0.36400000  0.85466667  0.61700000  1.0
  Li+  Li68  1  0.13600000  0.47866667  0.11700000  1.0
  Li+  Li69  1  0.13600000  0.97866667  0.11700000  1.0
  Li+  Li70  1  0.63600000  0.60466667  0.88300000  1.0
  Li+  Li71  1  0.63600000  0.10466667  0.88300000  1.0
  Li+  Li72  1  0.13600000  0.60466667  0.61700000  1.0
  Li+  Li73  1  0.13600000  0.10466667  0.61700000  1.0
  Li+  Li74  1  0.63600000  0.47866667  0.38300000  1.0
  Li+  Li75  1  0.63600000  0.97866667  0.38300000  1.0
  Li+  Li76  1  0.86400000  0.35466667  0.88300000  1.0
  Li+  Li77  1  0.86400000  0.85466667  0.88300000  1.0
  Li+  Li78  1  0.36400000  0.22866667  0.11700000  1.0
  Li+  Li79  1  0.36400000  0.72866667  0.11700000  1.0
  Ga3+  Ga80  1  0.64500000  0.22521667  0.61850000  1.0
  Ga3+  Ga81  1  0.64500000  0.72521667  0.61850000  1.0
  Ga3+  Ga82  1  0.14500000  0.35811667  0.38150000  1.0
  Ga3+  Ga83  1  0.14500000  0.85811667  0.38150000  1.0
  Ga3+  Ga84  1  0.35500000  0.47521667  0.88150000  1.0
  Ga3+  Ga85  1  0.35500000  0.97521667  0.88150000  1.0
  Ga3+  Ga86  1  0.85500000  0.60811667  0.11850000  1.0
  Ga3+  Ga87  1  0.85500000  0.10811667  0.11850000  1.0
  Ga3+  Ga88  1  0.35500000  0.60811667  0.38150000  1.0
  Ga3+  Ga89  1  0.35500000  0.10811667  0.38150000  1.0
  Ga3+  Ga90  1  0.85500000  0.47521667  0.61850000  1.0
  Ga3+  Ga91  1  0.85500000  0.97521667  0.61850000  1.0
  Ga3+  Ga92  1  0.64500000  0.35811667  0.11850000  1.0
  Ga3+  Ga93  1  0.64500000  0.85811667  0.11850000  1.0
  Ga3+  Ga94  1  0.14500000  0.22521667  0.88150000  1.0
  Ga3+  Ga95  1  0.14500000  0.72521667  0.88150000  1.0
  O2-  O96  1  0.75000000  0.66066667  0.50500000  1.0
  O2-  O97  1  0.75000000  0.16066667  0.50500000  1.0
  O2-  O98  1  0.25000000  0.42266667  0.49500000  1.0
  O2-  O99  1  0.25000000  0.92266667  0.49500000  1.0
  O2-  O100  1  0.25000000  0.41066667  0.99500000  1.0
  O2-  O101  1  0.25000000  0.91066667  0.99500000  1.0
  O2-  O102  1  0.75000000  0.17266667  0.00500000  1.0
  O2-  O103  1  0.75000000  0.67266667  0.00500000  1.0
  O2-  O104  1  0.25000000  0.17266667  0.49500000  1.0
  O2-  O105  1  0.25000000  0.67266667  0.49500000  1.0
  O2-  O106  1  0.75000000  0.41066667  0.50500000  1.0
  O2-  O107  1  0.75000000  0.91066667  0.50500000  1.0
  O2-  O108  1  0.75000000  0.42266667  0.00500000  1.0
  O2-  O109  1  0.75000000  0.92266667  0.00500000  1.0
  O2-  O110  1  0.25000000  0.66066667  0.99500000  1.0
  O2-  O111  1  0.25000000  0.16066667  0.99500000  1.0
  O2-  O112  1  0.53800000  0.16766667  0.74300000  1.0
  O2-  O113  1  0.53800000  0.66766667  0.74300000  1.0
  O2-  O114  1  0.03800000  0.41566667  0.25700000  1.0
  O2-  O115  1  0.03800000  0.91566667  0.25700000  1.0
  O2-  O116  1  0.46200000  0.41766667  0.75700000  1.0
  O2-  O117  1  0.46200000  0.91766667  0.75700000  1.0
  O2-  O118  1  0.96200000  0.66566667  0.24300000  1.0
  O2-  O119  1  0.96200000  0.16566667  0.24300000  1.0
  O2-  O120  1  0.46200000  0.66566667  0.25700000  1.0
  O2-  O121  1  0.46200000  0.16566667  0.25700000  1.0
  O2-  O122  1  0.96200000  0.41766667  0.74300000  1.0
  O2-  O123  1  0.96200000  0.91766667  0.74300000  1.0
  O2-  O124  1  0.53800000  0.41566667  0.24300000  1.0
  O2-  O125  1  0.53800000  0.91566667  0.24300000  1.0
  O2-  O126  1  0.03800000  0.16766667  0.75700000  1.0
  O2-  O127  1  0.03800000  0.66766667  0.75700000  1.0
  O2-  O128  1  0.51200000  0.28766667  0.53700000  1.0
  O2-  O129  1  0.51200000  0.78766667  0.53700000  1.0
  O2-  O130  1  0.01200000  0.29566667  0.46300000  1.0
  O2-  O131  1  0.01200000  0.79566667  0.46300000  1.0
  O2-  O132  1  0.48800000  0.53766667  0.96300000  1.0
  O2-  O133  1  0.48800000  0.03766667  0.96300000  1.0
  O2-  O134  1  0.98800000  0.54566667  0.03700000  1.0
  O2-  O135  1  0.98800000  0.04566667  0.03700000  1.0
  O2-  O136  1  0.48800000  0.54566667  0.46300000  1.0
  O2-  O137  1  0.48800000  0.04566667  0.46300000  1.0
  O2-  O138  1  0.98800000  0.53766667  0.53700000  1.0
  O2-  O139  1  0.98800000  0.03766667  0.53700000  1.0
  O2-  O140  1  0.51200000  0.29566667  0.03700000  1.0
  O2-  O141  1  0.51200000  0.79566667  0.03700000  1.0
  O2-  O142  1  0.01200000  0.28766667  0.96300000  1.0
  O2-  O143  1  0.01200000  0.78766667  0.96300000  1.0
  O2-  O144  1  0.74600000  0.28466667  0.74400000  1.0
  O2-  O145  1  0.74600000  0.78466667  0.74400000  1.0
  O2-  O146  1  0.24600000  0.29866667  0.25600000  1.0
  O2-  O147  1  0.24600000  0.79866667  0.25600000  1.0
  O2-  O148  1  0.25400000  0.53466667  0.75600000  1.0
  O2-  O149  1  0.25400000  0.03466667  0.75600000  1.0
  O2-  O150  1  0.75400000  0.54866667  0.24400000  1.0
  O2-  O151  1  0.75400000  0.04866667  0.24400000  1.0
  O2-  O152  1  0.25400000  0.54866667  0.25600000  1.0
  O2-  O153  1  0.25400000  0.04866667  0.25600000  1.0
  O2-  O154  1  0.75400000  0.53466667  0.74400000  1.0
  O2-  O155  1  0.75400000  0.03466667  0.74400000  1.0
  O2-  O156  1  0.74600000  0.29866667  0.24400000  1.0
  O2-  O157  1  0.74600000  0.79866667  0.24400000  1.0
  O2-  O158  1  0.24600000  0.28466667  0.75600000  1.0
  O2-  O159  1  0.24600000  0.78466667  0.75600000  1.0
