# generated using pymatgen
data_Li5GaO4
_symmetry_space_group_name_H-M   'P 1'
_cell_length_a   18.18800000
_cell_length_b   9.17300000
_cell_length_c   9.20200000
_cell_angle_alpha   90.00000000
_cell_angle_beta   90.00000000
_cell_angle_gamma   90.00000000
_symmetry_Int_Tables_number   1
_chemical_formula_structural   Li5GaO4
_chemical_formula_sum   'Li80 Ga16 O64'
_cell_volume   1535.24809785
_cell_formula_units_Z   16
loop_
 _symmetry_equiv_pos_site_id
 _symmetry_equiv_pos_as_xyz
  1  'x, y, z'
loop_
 _atom_type_symbol
 _atom_type_oxidation_number
  Li+  1.0
  Ga3+  3.0
  O2-  -2.0
loop_
 _atom_site_type_symbol
 _atom_site_label
 _atom_site_symmetry_multiplicity
 _atom_site_fract_x
 _atom_site_fract_y
 _atom_site_fract_z
 _atom_site_occupancy
  Li+  Li1  1  0.42350000  0.40700000  0.90900000  1.0
  Li+  Li1  1  0.92350000  0.40700000  0.90900000  1.0
  Li+  Li1  1  0.32650000  0.90700000  0.09100000  1.0
  Li+  Li1  1  0.82650000  0.90700000  0.09100000  1.0
  Li+  Li1  1  0.17350000  0.59300000  0.59100000  1.0
  Li+  Li1  1  0.67350000  0.59300000  0.59100000  1.0
  Li+  Li1  1  0.07650000  0.09300000  0.40900000  1.0
  Li+  Li1  1  0.57650000  0.09300000  0.40900000  1.0
  Li+  Li1  1  0.07650000  0.59300000  0.09100000  1.0
  Li+  Li1  1  0.57650000  0.59300000  0.09100000  1.0
  Li+  Li1  1  0.17350000  0.09300000  0.90900000  1.0
  Li+  Li1  1  0.67350000  0.09300000  0.90900000  1.0
  Li+  Li1  1  0.32650000  0.40700000  0.40900000  1.0
  Li+  Li1  1  0.82650000  0.40700000  0.40900000  1.0
  Li+  Li1  1  0.42350000  0.90700000  0.59100000  1.0
  Li+  Li1  1  0.92350000  0.90700000  0.59100000  1.0
  Li+  Li2  1  0.45750000  0.36900000  0.16100000  1.0
  Li+  Li2  1  0.95750000  0.36900000  0.16100000  1.0
  Li+  Li2  1  0.29250000  0.86900000  0.83900000  1.0
  Li+  Li2  1  0.79250000  0.86900000  0.83900000  1.0
  Li+  Li2  1  0.20750000  0.63100000  0.33900000  1.0
  Li+  Li2  1  0.70750000  0.63100000  0.33900000  1.0
  Li+  Li2  1  0.04250000  0.13100000  0.66100000  1.0
  Li+  Li2  1  0.54250000  0.13100000  0.66100000  1.0
  Li+  Li2  1  0.04250000  0.63100000  0.83900000  1.0
  Li+  Li2  1  0.54250000  0.63100000  0.83900000  1.0
  Li+  Li2  1  0.20750000  0.13100000  0.16100000  1.0
  Li+  Li2  1  0.70750000  0.13100000  0.16100000  1.0
  Li+  Li2  1  0.29250000  0.36900000  0.66100000  1.0
  Li+  Li2  1  0.79250000  0.36900000  0.66100000  1.0
  Li+  Li2  1  0.45750000  0.86900000  0.33900000  1.0
  Li+  Li2  1  0.95750000  0.86900000  0.33900000  1.0
  Li+  Li3  1  0.45350000  0.14400000  0.84700000  1.0
  Li+  Li3  1  0.95350000  0.14400000  0.84700000  1.0
  Li+  Li3  1  0.29650000  0.64400000  0.15300000  1.0
  Li+  Li3  1  0.79650000  0.64400000  0.15300000  1.0
  Li+  Li3  1  0.20350000  0.85600000  0.65300000  1.0
  Li+  Li3  1  0.70350000  0.85600000  0.65300000  1.0
  Li+  Li3  1  0.04650000  0.35600000  0.34700000  1.0
  Li+  Li3  1  0.54650000  0.35600000  0.34700000  1.0
  Li+  Li3  1  0.04650000  0.85600000  0.15300000  1.0
  Li+  Li3  1  0.54650000  0.85600000  0.15300000  1.0
  Li+  Li3  1  0.20350000  0.35600000  0.84700000  1.0
  Li+  Li3  1  0.70350000  0.35600000  0.84700000  1.0
  Li+  Li3  1  0.29650000  0.14400000  0.34700000  1.0
  Li+  Li3  1  0.79650000  0.14400000  0.34700000  1.0
  Li+  Li3  1  0.45350000  0.64400000  0.65300000  1.0
  Li+  Li3  1  0.95350000  0.64400000  0.65300000  1.0
  Li+  Li4  1  0.41800000  0.10200000  0.10900000  1.0
  Li+  Li4  1  0.91800000  0.10200000  0.10900000  1.0
  Li+  Li4  1  0.33200000  0.60200000  0.89100000  1.0
  Li+  Li4  1  0.83200000  0.60200000  0.89100000  1.0
  Li+  Li4  1  0.16800000  0.89800000  0.39100000  1.0
  Li+  Li4  1  0.66800000  0.89800000  0.39100000  1.0
  Li+  Li4  1  0.08200000  0.39800000  0.60900000  1.0
  Li+  Li4  1  0.58200000  0.39800000  0.60900000  1.0
  Li+  Li4  1  0.08200000  0.89800000  0.89100000  1.0
  Li+  Li4  1  0.58200000  0.89800000  0.89100000  1.0
  Li+  Li4  1  0.16800000  0.39800000  0.10900000  1.0
  Li+  Li4  1  0.66800000  0.39800000  0.10900000  1.0
  Li+  Li4  1  0.33200000  0.10200000  0.60900000  1.0
  Li+  Li4  1  0.83200000  0.10200000  0.60900000  1.0
  Li+  Li4  1  0.41800000  0.60200000  0.39100000  1.0
  Li+  Li4  1  0.91800000  0.60200000  0.39100000  1.0
  Li+  Li5  1  0.43800000  0.13600000  0.38300000  1.0
  Li+  Li5  1  0.93800000  0.13600000  0.38300000  1.0
  Li+  Li5  1  0.31200000  0.63600000  0.61700000  1.0
  Li+  Li5  1  0.81200000  0.63600000  0.61700000  1.0
  Li+  Li5  1  0.18800000  0.86400000  0.11700000  1.0
  Li+  Li5  1  0.68800000  0.86400000  0.11700000  1.0
  Li+  Li5  1  0.06200000  0.36400000  0.88300000  1.0
  Li+  Li5  1  0.56200000  0.36400000  0.88300000  1.0
  Li+  Li5  1  0.06200000  0.86400000  0.61700000  1.0
  Li+  Li5  1  0.56200000  0.86400000  0.61700000  1.0
  Li+  Li5  1  0.18800000  0.36400000  0.38300000  1.0
  Li+  Li5  1  0.68800000  0.36400000  0.38300000  1.0
  Li+  Li5  1  0.31200000  0.13600000  0.88300000  1.0
  Li+  Li5  1  0.81200000  0.13600000  0.88300000  1.0
  Li+  Li5  1  0.43800000  0.63600000  0.11700000  1.0
  Li+  Li5  1  0.93800000  0.63600000  0.11700000  1.0
  Ga3+  Ga1  1  0.44145000  0.35500000  0.61850000  1.0
  Ga3+  Ga1  1  0.94145000  0.35500000  0.61850000  1.0
  Ga3+  Ga1  1  0.30855000  0.85500000  0.38150000  1.0
  Ga3+  Ga1  1  0.80855000  0.85500000  0.38150000  1.0
  Ga3+  Ga1  1  0.19145000  0.64500000  0.88150000  1.0
  Ga3+  Ga1  1  0.69145000  0.64500000  0.88150000  1.0
  Ga3+  Ga1  1  0.05855000  0.14500000  0.11850000  1.0
  Ga3+  Ga1  1  0.55855000  0.14500000  0.11850000  1.0
  Ga3+  Ga1  1  0.05855000  0.64500000  0.38150000  1.0
  Ga3+  Ga1  1  0.55855000  0.64500000  0.38150000  1.0
  Ga3+  Ga1  1  0.19145000  0.14500000  0.61850000  1.0
  Ga3+  Ga1  1  0.69145000  0.14500000  0.61850000  1.0
  Ga3+  Ga1  1  0.30855000  0.35500000  0.11850000  1.0
  Ga3+  Ga1  1  0.80855000  0.35500000  0.11850000  1.0
  Ga3+  Ga1  1  0.44145000  0.85500000  0.88150000  1.0
  Ga3+  Ga1  1  0.94145000  0.85500000  0.88150000  1.0
  O2-  O1  1  0.00600000  0.25000000  0.50500000  1.0
  O2-  O1  1  0.50600000  0.25000000  0.50500000  1.0
  O2-  O1  1  0.24400000  0.75000000  0.49500000  1.0
  O2-  O1  1  0.74400000  0.75000000  0.49500000  1.0
  O2-  O1  1  0.25600000  0.75000000  0.99500000  1.0
  O2-  O1  1  0.75600000  0.75000000  0.99500000  1.0
  O2-  O1  1  0.49400000  0.25000000  0.00500000  1.0
  O2-  O1  1  0.99400000  0.25000000  0.00500000  1.0
  O2-  O1  1  0.49400000  0.75000000  0.49500000  1.0
  O2-  O1  1  0.99400000  0.75000000  0.49500000  1.0
  O2-  O1  1  0.25600000  0.25000000  0.50500000  1.0
  O2-  O1  1  0.75600000  0.25000000  0.50500000  1.0
  O2-  O1  1  0.24400000  0.25000000  0.00500000  1.0
  O2-  O1  1  0.74400000  0.25000000  0.00500000  1.0
  O2-  O1  1  0.00600000  0.75000000  0.99500000  1.0
  O2-  O1  1  0.50600000  0.75000000  0.99500000  1.0
  O2-  O2  1  0.49900000  0.46200000  0.74300000  1.0
  O2-  O2  1  0.99900000  0.46200000  0.74300000  1.0
  O2-  O2  1  0.25100000  0.96200000  0.25700000  1.0
  O2-  O2  1  0.75100000  0.96200000  0.25700000  1.0
  O2-  O2  1  0.24900000  0.53800000  0.75700000  1.0
  O2-  O2  1  0.74900000  0.53800000  0.75700000  1.0
  O2-  O2  1  0.00100000  0.03800000  0.24300000  1.0
  O2-  O2  1  0.50100000  0.03800000  0.24300000  1.0
  O2-  O2  1  0.00100000  0.53800000  0.25700000  1.0
  O2-  O2  1  0.50100000  0.53800000  0.25700000  1.0
  O2-  O2  1  0.24900000  0.03800000  0.74300000  1.0
  O2-  O2  1  0.74900000  0.03800000  0.74300000  1.0
  O2-  O2  1  0.25100000  0.46200000  0.24300000  1.0
  O2-  O2  1  0.75100000  0.46200000  0.24300000  1.0
  O2-  O2  1  0.49900000  0.96200000  0.75700000  1.0
  O2-  O2  1  0.99900000  0.96200000  0.75700000  1.0
  O2-  O3  1  0.37900000  0.48800000  0.53700000  1.0
  O2-  O3  1  0.87900000  0.48800000  0.53700000  1.0
  O2-  O3  1  0.37100000  0.98800000  0.46300000  1.0
  O2-  O3  1  0.87100000  0.98800000  0.46300000  1.0
  O2-  O3  1  0.12900000  0.51200000  0.96300000  1.0
  O2-  O3  1  0.62900000  0.51200000  0.96300000  1.0
  O2-  O3  1  0.12100000  0.01200000  0.03700000  1.0
  O2-  O3  1  0.62100000  0.01200000  0.03700000  1.0
  O2-  O3  1  0.12100000  0.51200000  0.46300000  1.0
  O2-  O3  1  0.62100000  0.51200000  0.46300000  1.0
  O2-  O3  1  0.12900000  0.01200000  0.53700000  1.0
  O2-  O3  1  0.62900000  0.01200000  0.53700000  1.0
  O2-  O3  1  0.37100000  0.48800000  0.03700000  1.0
  O2-  O3  1  0.87100000  0.48800000  0.03700000  1.0
  O2-  O3  1  0.37900000  0.98800000  0.96300000  1.0
  O2-  O3  1  0.87900000  0.98800000  0.96300000  1.0
  O2-  O4  1  0.38200000  0.25400000  0.74400000  1.0
  O2-  O4  1  0.88200000  0.25400000  0.74400000  1.0
  O2-  O4  1  0.36800000  0.75400000  0.25600000  1.0
  O2-  O4  1  0.86800000  0.75400000  0.25600000  1.0
  O2-  O4  1  0.13200000  0.74600000  0.75600000  1.0
  O2-  O4  1  0.63200000  0.74600000  0.75600000  1.0
  O2-  O4  1  0.11800000  0.24600000  0.24400000  1.0
  O2-  O4  1  0.61800000  0.24600000  0.24400000  1.0
  O2-  O4  1  0.11800000  0.74600000  0.25600000  1.0
  O2-  O4  1  0.61800000  0.74600000  0.25600000  1.0
  O2-  O4  1  0.13200000  0.24600000  0.74400000  1.0
  O2-  O4  1  0.63200000  0.24600000  0.74400000  1.0
  O2-  O4  1  0.36800000  0.25400000  0.24400000  1.0
  O2-  O4  1  0.86800000  0.25400000  0.24400000  1.0
  O2-  O4  1  0.38200000  0.75400000  0.75600000  1.0
  O2-  O4  1  0.88200000  0.75400000  0.75600000  1.0
