# generated using pymatgen
data_LiBO2
_symmetry_space_group_name_H-M   'P 1'
_cell_length_a   8.70600000
_cell_length_b   19.36200000
_cell_length_c   11.69000000
_cell_angle_alpha   115.09000000
_cell_angle_beta   90.00000000
_cell_angle_gamma   90.00000000
_symmetry_Int_Tables_number   1
_chemical_formula_structural   LiBO2
_chemical_formula_sum   'Li48 B48 O96'
_cell_volume   1784.59774169
_cell_formula_units_Z   48
loop_
 _symmetry_equiv_pos_site_id
 _symmetry_equiv_pos_as_xyz
  1  'x, y, z'
loop_
 _atom_type_symbol
 _atom_type_oxidation_number
  Li+  1.0
  B3+  3.0
  O2-  -2.0
loop_
 _atom_site_type_symbol
 _atom_site_label
 _atom_site_symmetry_multiplicity
 _atom_site_fract_x
 _atom_site_fract_y
 _atom_site_fract_z
 _atom_site_occupancy
  Li+  Li0  1  0.35725000  0.94803333  0.46655000  1.0
  Li+  Li1  1  0.35725000  0.61470000  0.46655000  1.0
  Li+  Li2  1  0.35725000  0.28136667  0.46655000  1.0
  Li+  Li3  1  0.35850227  0.94138515  0.96385636  1.0
  Li+  Li4  1  0.35725000  0.61470000  0.96655000  1.0
  Li+  Li5  1  0.35725000  0.28136667  0.96655000  1.0
  Li+  Li6  1  0.85725000  0.94803333  0.46655000  1.0
  Li+  Li7  1  0.85725000  0.61470000  0.46655000  1.0
  Li+  Li8  1  0.85725000  0.28136667  0.46655000  1.0
  Li+  Li9  1  0.85725000  0.94803333  0.96655000  1.0
  Li+  Li10  1  0.85725000  0.61470000  0.96655000  1.0
  Li+  Li11  1  0.85725000  0.28136667  0.96655000  1.0
  Li+  Li12  1  0.10725000  0.88530000  0.53345000  1.0
  Li+  Li13  1  0.10725000  0.55196667  0.53345000  1.0
  Li+  Li14  1  0.10725000  0.21863333  0.53345000  1.0
  Li+  Li15  1  0.10792844  0.88411972  0.03310156  1.0
  Li+  Li16  1  0.10725000  0.55196667  0.03345000  1.0
  Li+  Li17  1  0.10697423  0.21552054  0.03857515  1.0
  Li+  Li18  1  0.60725000  0.88530000  0.53345000  1.0
  Li+  Li19  1  0.60725000  0.55196667  0.53345000  1.0
  Li+  Li20  1  0.60725000  0.21863333  0.53345000  1.0
  Li+  Li21  1  0.60725000  0.88530000  0.03345000  1.0
  Li+  Li22  1  0.60725000  0.55196667  0.03345000  1.0
  Li+  Li23  1  0.60433089  0.21926516  0.03782386  1.0
  Li+  Li24  1  0.14402225  0.72176456  0.53232822  1.0
  Li+  Li25  1  0.13954714  0.38765312  0.53226262  1.0
  Li+  Li26  1  0.14275000  0.05196667  0.53345000  1.0
  Li+  Li27  1  0.14275000  0.71863333  0.03345000  1.0
  Li+  Li28  1  0.14275000  0.38530000  0.03345000  1.0
  Li+  Li29  1  0.14275000  0.05196667  0.03345000  1.0
  Li+  Li30  1  0.64275000  0.71863333  0.53345000  1.0
  Li+  Li31  1  0.64275000  0.38530000  0.53345000  1.0
  Li+  Li32  1  0.64275000  0.05196667  0.53345000  1.0
  Li+  Li33  1  0.64275000  0.71863333  0.03345000  1.0
  Li+  Li34  1  0.64071861  0.38535366  0.03335352  1.0
  Li+  Li35  1  0.64275000  0.05196667  0.03345000  1.0
  Li+  Li36  1  0.39275000  0.78136667  0.46655000  1.0
  Li+  Li37  1  0.39275000  0.44803333  0.46655000  1.0
  Li+  Li38  1  0.39275000  0.11470000  0.46655000  1.0
  Li+  Li39  1  0.39275000  0.78136667  0.96655000  1.0
  Li+  Li40  1  0.39275000  0.44803333  0.96655000  1.0
  Li+  Li41  1  0.39275000  0.11470000  0.96655000  1.0
  Li+  Li42  1  0.89275000  0.78136667  0.46655000  1.0
  Li+  Li43  1  0.89446708  0.44976819  0.46718233  1.0
  Li+  Li44  1  0.89275000  0.11470000  0.46655000  1.0
  Li+  Li45  1  0.89275000  0.78136667  0.96655000  1.0
  Li+  Li46  1  0.89275000  0.44803333  0.96655000  1.0
  Li+  Li47  1  0.89275000  0.11470000  0.96655000  1.0
  B3+  B48  1  0.08770000  0.92413333  0.31220000  1.0
  B3+  B49  1  0.08873997  0.59020528  0.30727968  1.0
  B3+  B50  1  0.08770000  0.25746667  0.31220000  1.0
  B3+  B51  1  0.08770000  0.92413333  0.81220000  1.0
  B3+  B52  1  0.08871949  0.59246695  0.81558493  1.0
  B3+  B53  1  0.08770000  0.25746667  0.81220000  1.0
  B3+  B54  1  0.58770000  0.92413333  0.31220000  1.0
  B3+  B55  1  0.58770000  0.59080000  0.31220000  1.0
  B3+  B56  1  0.58770000  0.25746667  0.31220000  1.0
  B3+  B57  1  0.58767756  0.92626044  0.80854764  1.0
  B3+  B58  1  0.58770000  0.59080000  0.81220000  1.0
  B3+  B59  1  0.58770000  0.25746667  0.81220000  1.0
  B3+  B60  1  0.33972877  0.91120166  0.68241693  1.0
  B3+  B61  1  0.33770000  0.57586667  0.68780000  1.0
  B3+  B62  1  0.33770000  0.24253333  0.68780000  1.0
  B3+  B63  1  0.33770000  0.90920000  0.18780000  1.0
  B3+  B64  1  0.33770000  0.57586667  0.18780000  1.0
  B3+  B65  1  0.33403893  0.24249615  0.18555239  1.0
  B3+  B66  1  0.83634301  0.91234796  0.68421198  1.0
  B3+  B67  1  0.83770000  0.57586667  0.68780000  1.0
  B3+  B68  1  0.83770000  0.24253333  0.68780000  1.0
  B3+  B69  1  0.83675907  0.91048224  0.18814048  1.0
  B3+  B70  1  0.83770000  0.57586667  0.18780000  1.0
  B3+  B71  1  0.83770000  0.24253333  0.18780000  1.0
  B3+  B72  1  0.41230000  0.74253333  0.68780000  1.0
  B3+  B73  1  0.41230000  0.40920000  0.68780000  1.0
  B3+  B74  1  0.41709117  0.08041151  0.69041514  1.0
  B3+  B75  1  0.41670076  0.74486653  0.18104861  1.0
  B3+  B76  1  0.41230000  0.40920000  0.18780000  1.0
  B3+  B77  1  0.41230000  0.07586667  0.18780000  1.0
  B3+  B78  1  0.91230000  0.74253333  0.68780000  1.0
  B3+  B79  1  0.91230000  0.40920000  0.68780000  1.0
  B3+  B80  1  0.91230000  0.07586667  0.68780000  1.0
  B3+  B81  1  0.91230000  0.74253333  0.18780000  1.0
  B3+  B82  1  0.91499363  0.41218088  0.18608806  1.0
  B3+  B83  1  0.91267752  0.07457060  0.18972460  1.0
  B3+  B84  1  0.16230000  0.75746667  0.31220000  1.0
  B3+  B85  1  0.16230000  0.42413333  0.31220000  1.0
  B3+  B86  1  0.16230000  0.09080000  0.31220000  1.0
  B3+  B87  1  0.15864277  0.76055372  0.81007815  1.0
  B3+  B88  1  0.16230000  0.42413333  0.81220000  1.0
  B3+  B89  1  0.16230000  0.09080000  0.81220000  1.0
  B3+  B90  1  0.66230000  0.75746667  0.31220000  1.0
  B3+  B91  1  0.66230000  0.42413333  0.31220000  1.0
  B3+  B92  1  0.66230000  0.09080000  0.31220000  1.0
  B3+  B93  1  0.66230000  0.75746667  0.81220000  1.0
  B3+  B94  1  0.66230000  0.42413333  0.81220000  1.0
  B3+  B95  1  0.66228545  0.09084626  0.81148051  1.0
  O2-  O96  1  0.42770000  0.91970000  0.29225000  1.0
  O2-  O97  1  0.42770000  0.58636667  0.29225000  1.0
  O2-  O98  1  0.42770000  0.25303333  0.29225000  1.0
  O2-  O99  1  0.42578315  0.92095311  0.78941303  1.0
  O2-  O100  1  0.42449582  0.58043212  0.79180862  1.0
  O2-  O101  1  0.42914421  0.25299271  0.79331530  1.0
  O2-  O102  1  0.92893125  0.91717125  0.29029596  1.0
  O2-  O103  1  0.92770000  0.58636667  0.29225000  1.0
  O2-  O104  1  0.92770000  0.25303333  0.29225000  1.0
  O2-  O105  1  0.92770000  0.91970000  0.79225000  1.0
  O2-  O106  1  0.92770000  0.58636667  0.79225000  1.0
  O2-  O107  1  0.92770000  0.25303333  0.79225000  1.0
  O2-  O108  1  0.17739214  0.91538370  0.70331516  1.0
  O2-  O109  1  0.17770000  0.58030000  0.70775000  1.0
  O2-  O110  1  0.17819003  0.24589380  0.70821411  1.0
  O2-  O111  1  0.17770000  0.91363333  0.20775000  1.0
  O2-  O112  1  0.17770000  0.58030000  0.20775000  1.0
  O2-  O113  1  0.17523749  0.24189648  0.21376548  1.0
  O2-  O114  1  0.67770000  0.91363333  0.70775000  1.0
  O2-  O115  1  0.67770000  0.58030000  0.70775000  1.0
  O2-  O116  1  0.67770000  0.24696667  0.70775000  1.0
  O2-  O117  1  0.67770000  0.91363333  0.20775000  1.0
  O2-  O118  1  0.67770000  0.58030000  0.20775000  1.0
  O2-  O119  1  0.67858487  0.24598473  0.20636888  1.0
  O2-  O120  1  0.07230000  0.74696667  0.70775000  1.0
  O2-  O121  1  0.07449739  0.40943700  0.70959565  1.0
  O2-  O122  1  0.07230000  0.08030000  0.70775000  1.0
  O2-  O123  1  0.07230000  0.74696667  0.20775000  1.0
  O2-  O124  1  0.07400978  0.41250516  0.20816539  1.0
  O2-  O125  1  0.06794401  0.08199376  0.20495829  1.0
  O2-  O126  1  0.57230000  0.74696667  0.70775000  1.0
  O2-  O127  1  0.57230000  0.41363333  0.70775000  1.0
  O2-  O128  1  0.57230000  0.08030000  0.70775000  1.0
  O2-  O129  1  0.57230000  0.74696667  0.20775000  1.0
  O2-  O130  1  0.56979965  0.41383115  0.20739929  1.0
  O2-  O131  1  0.57230000  0.08030000  0.20775000  1.0
  O2-  O132  1  0.32252359  0.75155725  0.28954152  1.0
  O2-  O133  1  0.32230000  0.41970000  0.29225000  1.0
  O2-  O134  1  0.32230000  0.08636667  0.29225000  1.0
  O2-  O135  1  0.32230000  0.75303333  0.79225000  1.0
  O2-  O136  1  0.32230000  0.41970000  0.79225000  1.0
  O2-  O137  1  0.31943730  0.08286384  0.79084792  1.0
  O2-  O138  1  0.82230000  0.75303333  0.29225000  1.0
  O2-  O139  1  0.82285264  0.42144885  0.29705107  1.0
  O2-  O140  1  0.82230000  0.08636667  0.29225000  1.0
  O2-  O141  1  0.82230000  0.75303333  0.79225000  1.0
  O2-  O142  1  0.82230000  0.41970000  0.79225000  1.0
  O2-  O143  1  0.82230000  0.08636667  0.79225000  1.0
  O2-  O144  1  0.13725000  0.93900000  0.42730000  1.0
  O2-  O145  1  0.14286110  0.60674821  0.42385560  1.0
  O2-  O146  1  0.13725000  0.27233333  0.42730000  1.0
  O2-  O147  1  0.13725000  0.93900000  0.92730000  1.0
  O2-  O148  1  0.13250787  0.60462781  0.92658922  1.0
  O2-  O149  1  0.13725000  0.27233333  0.92730000  1.0
  O2-  O150  1  0.63725000  0.93900000  0.42730000  1.0
  O2-  O151  1  0.63725000  0.60566667  0.42730000  1.0
  O2-  O152  1  0.63725000  0.27233333  0.42730000  1.0
  O2-  O153  1  0.63725000  0.93900000  0.92730000  1.0
  O2-  O154  1  0.63725000  0.60566667  0.92730000  1.0
  O2-  O155  1  0.63586823  0.27439057  0.92552415  1.0
  O2-  O156  1  0.38725000  0.89433333  0.57270000  1.0
  O2-  O157  1  0.38632662  0.56388645  0.56888011  1.0
  O2-  O158  1  0.38630046  0.22905670  0.57392983  1.0
  O2-  O159  1  0.38725000  0.89433333  0.07270000  1.0
  O2-  O160  1  0.38725000  0.56100000  0.07270000  1.0
  O2-  O161  1  0.38725000  0.22766667  0.07270000  1.0
  O2-  O162  1  0.88725000  0.89433333  0.57270000  1.0
  O2-  O163  1  0.88725000  0.56100000  0.57270000  1.0
  O2-  O164  1  0.88725000  0.22766667  0.57270000  1.0
  O2-  O165  1  0.88725000  0.89433333  0.07270000  1.0
  O2-  O166  1  0.88725000  0.56100000  0.07270000  1.0
  O2-  O167  1  0.88781726  0.23087431  0.07190795  1.0
  O2-  O168  1  0.35779820  0.72516311  0.57523974  1.0
  O2-  O169  1  0.36275000  0.39433333  0.57270000  1.0
  O2-  O170  1  0.36275000  0.06100000  0.57270000  1.0
  O2-  O171  1  0.36485462  0.72612164  0.07370845  1.0
  O2-  O172  1  0.36275000  0.39433333  0.07270000  1.0
  O2-  O173  1  0.36275000  0.06100000  0.07270000  1.0
  O2-  O174  1  0.86232404  0.72925074  0.57262111  1.0
  O2-  O175  1  0.85776009  0.39838719  0.57282205  1.0
  O2-  O176  1  0.86275000  0.06100000  0.57270000  1.0
  O2-  O177  1  0.86275000  0.72766667  0.07270000  1.0
  O2-  O178  1  0.86275000  0.39433333  0.07270000  1.0
  O2-  O179  1  0.86275000  0.06100000  0.07270000  1.0
  O2-  O180  1  0.11362854  0.77354671  0.42566146  1.0
  O2-  O181  1  0.11275000  0.43900000  0.42730000  1.0
  O2-  O182  1  0.11325411  0.10842472  0.42463733  1.0
  O2-  O183  1  0.11275000  0.77233333  0.92730000  1.0
  O2-  O184  1  0.11275000  0.43900000  0.92730000  1.0
  O2-  O185  1  0.11275000  0.10566667  0.92730000  1.0
  O2-  O186  1  0.61275000  0.77233333  0.42730000  1.0
  O2-  O187  1  0.61275000  0.43900000  0.42730000  1.0
  O2-  O188  1  0.61275000  0.10566667  0.42730000  1.0
  O2-  O189  1  0.61275000  0.77233333  0.92730000  1.0
  O2-  O190  1  0.61275000  0.43900000  0.92730000  1.0
  O2-  O191  1  0.61275000  0.10566667  0.92730000  1.0
