# generated using pymatgen
data_LiBO2
_symmetry_space_group_name_H-M   'P 1'
_cell_length_a   11.68589837
_cell_length_b   8.70294536
_cell_length_c   19.35520652
_cell_angle_alpha   90.00000000
_cell_angle_beta   64.91000000
_cell_angle_gamma   90.00000000
_symmetry_Int_Tables_number   1
_chemical_formula_structural   LiBO2
_chemical_formula_sum   'Li48 B48 O96'
_cell_volume   1782.71993442
_cell_formula_units_Z   48
loop_
 _symmetry_equiv_pos_site_id
 _symmetry_equiv_pos_as_xyz
  1  'x, y, z'
loop_
 _atom_type_symbol
 _atom_type_oxidation_number
  Li+  1.0
  B3+  3.0
  O2-  -2.0
loop_
 _atom_site_type_symbol
 _atom_site_label
 _atom_site_symmetry_multiplicity
 _atom_site_fract_x
 _atom_site_fract_y
 _atom_site_fract_z
 _atom_site_occupancy
  Li+  Li0  1  0.71655000  0.30941667  0.05196667  1.0
  Li+  Li1  1  0.71655000  0.30941667  0.38530000  1.0
  Li+  Li2  1  0.71655000  0.30941667  0.71863333  1.0
  Li+  Li3  1  0.21655000  0.30941667  0.05196667  1.0
  Li+  Li4  1  0.21655000  0.30941667  0.38530000  1.0
  Li+  Li5  1  0.21655000  0.30941667  0.71863333  1.0
  Li+  Li6  1  0.71655000  0.80941667  0.05196667  1.0
  Li+  Li7  1  0.71655000  0.80941667  0.38530000  1.0
  Li+  Li8  1  0.71655000  0.80941667  0.71863333  1.0
  Li+  Li9  1  0.21655000  0.80941667  0.05196667  1.0
  Li+  Li10  1  0.21655000  0.80941667  0.38530000  1.0
  Li+  Li11  1  0.21655000  0.80941667  0.71863333  1.0
  Li+  Li12  1  0.78345000  0.55941667  0.11470000  1.0
  Li+  Li13  1  0.78345000  0.55941667  0.44803333  1.0
  Li+  Li14  1  0.78345000  0.55941667  0.78136667  1.0
  Li+  Li15  1  0.28345000  0.55941667  0.11470000  1.0
  Li+  Li16  1  0.28345000  0.55941667  0.44803333  1.0
  Li+  Li17  1  0.28345000  0.55941667  0.78136667  1.0
  Li+  Li18  1  0.78345000  0.05941667  0.11470000  1.0
  Li+  Li19  1  0.78345000  0.05941667  0.44803333  1.0
  Li+  Li20  1  0.78345000  0.05941667  0.78136667  1.0
  Li+  Li21  1  0.28345000  0.05941667  0.11470000  1.0
  Li+  Li22  1  0.28345000  0.05941667  0.44803333  1.0
  Li+  Li23  1  0.28345000  0.05941667  0.78136667  1.0
  Li+  Li24  1  0.78345000  0.52391667  0.28136667  1.0
  Li+  Li25  1  0.78345000  0.52391667  0.61470000  1.0
  Li+  Li26  1  0.78345000  0.52391667  0.94803333  1.0
  Li+  Li27  1  0.28345000  0.52391667  0.28136667  1.0
  Li+  Li28  1  0.28345000  0.52391667  0.61470000  1.0
  Li+  Li29  1  0.28345000  0.52391667  0.94803333  1.0
  Li+  Li30  1  0.78345000  0.02391667  0.28136667  1.0
  Li+  Li31  1  0.78345000  0.02391667  0.61470000  1.0
  Li+  Li32  1  0.78345000  0.02391667  0.94803333  1.0
  Li+  Li33  1  0.28345000  0.02391667  0.28136667  1.0
  Li+  Li34  1  0.28345000  0.02391667  0.61470000  1.0
  Li+  Li35  1  0.28345000  0.02391667  0.94803333  1.0
  Li+  Li36  1  0.71655000  0.27391667  0.21863333  1.0
  Li+  Li37  1  0.71655000  0.27391667  0.55196667  1.0
  Li+  Li38  1  0.71655000  0.27391667  0.88530000  1.0
  Li+  Li39  1  0.21655000  0.27391667  0.21863333  1.0
  Li+  Li40  1  0.21655000  0.27391667  0.55196667  1.0
  Li+  Li41  1  0.21655000  0.27391667  0.88530000  1.0
  Li+  Li42  1  0.71655000  0.77391667  0.21863333  1.0
  Li+  Li43  1  0.71655000  0.77391667  0.55196667  1.0
  Li+  Li44  1  0.71655000  0.77391667  0.88530000  1.0
  Li+  Li45  1  0.21655000  0.77391667  0.21863333  1.0
  Li+  Li46  1  0.21655000  0.77391667  0.55196667  1.0
  Li+  Li47  1  0.21655000  0.77391667  0.88530000  1.0
  B3+  B48  1  0.56220000  0.57896667  0.07586667  1.0
  B3+  B49  1  0.56220000  0.57896667  0.40920000  1.0
  B3+  B50  1  0.56220000  0.57896667  0.74253333  1.0
  B3+  B51  1  0.06220000  0.57896667  0.07586667  1.0
  B3+  B52  1  0.06220000  0.57896667  0.40920000  1.0
  B3+  B53  1  0.06220000  0.57896667  0.74253333  1.0
  B3+  B54  1  0.56220000  0.07896667  0.07586667  1.0
  B3+  B55  1  0.56220000  0.07896667  0.40920000  1.0
  B3+  B56  1  0.56220000  0.07896667  0.74253333  1.0
  B3+  B57  1  0.06220000  0.07896667  0.07586667  1.0
  B3+  B58  1  0.06220000  0.07896667  0.40920000  1.0
  B3+  B59  1  0.06220000  0.07896667  0.74253333  1.0
  B3+  B60  1  0.93780000  0.32896667  0.09080000  1.0
  B3+  B61  1  0.93780000  0.32896667  0.42413333  1.0
  B3+  B62  1  0.93780000  0.32896667  0.75746667  1.0
  B3+  B63  1  0.43780000  0.32896667  0.09080000  1.0
  B3+  B64  1  0.43780000  0.32896667  0.42413333  1.0
  B3+  B65  1  0.43780000  0.32896667  0.75746667  1.0
  B3+  B66  1  0.93780000  0.82896667  0.09080000  1.0
  B3+  B67  1  0.93780000  0.82896667  0.42413333  1.0
  B3+  B68  1  0.93780000  0.82896667  0.75746667  1.0
  B3+  B69  1  0.43780000  0.82896667  0.09080000  1.0
  B3+  B70  1  0.43780000  0.82896667  0.42413333  1.0
  B3+  B71  1  0.43780000  0.82896667  0.75746667  1.0
  B3+  B72  1  0.93780000  0.25436667  0.25746667  1.0
  B3+  B73  1  0.93780000  0.25436667  0.59080000  1.0
  B3+  B74  1  0.93780000  0.25436667  0.92413333  1.0
  B3+  B75  1  0.43780000  0.25436667  0.25746667  1.0
  B3+  B76  1  0.43780000  0.25436667  0.59080000  1.0
  B3+  B77  1  0.43780000  0.25436667  0.92413333  1.0
  B3+  B78  1  0.93780000  0.75436667  0.25746667  1.0
  B3+  B79  1  0.93780000  0.75436667  0.59080000  1.0
  B3+  B80  1  0.93780000  0.75436667  0.92413333  1.0
  B3+  B81  1  0.43780000  0.75436667  0.25746667  1.0
  B3+  B82  1  0.43780000  0.75436667  0.59080000  1.0
  B3+  B83  1  0.43780000  0.75436667  0.92413333  1.0
  B3+  B84  1  0.56220000  0.50436667  0.24253333  1.0
  B3+  B85  1  0.56220000  0.50436667  0.57586667  1.0
  B3+  B86  1  0.56220000  0.50436667  0.90920000  1.0
  B3+  B87  1  0.06220000  0.50436667  0.24253333  1.0
  B3+  B88  1  0.06220000  0.50436667  0.57586667  1.0
  B3+  B89  1  0.06220000  0.50436667  0.90920000  1.0
  B3+  B90  1  0.56220000  0.00436667  0.24253333  1.0
  B3+  B91  1  0.56220000  0.00436667  0.57586667  1.0
  B3+  B92  1  0.56220000  0.00436667  0.90920000  1.0
  B3+  B93  1  0.06220000  0.00436667  0.24253333  1.0
  B3+  B94  1  0.06220000  0.00436667  0.57586667  1.0
  B3+  B95  1  0.06220000  0.00436667  0.90920000  1.0
  O2-  O96  1  0.54225000  0.23896667  0.08030000  1.0
  O2-  O97  1  0.54225000  0.23896667  0.41363333  1.0
  O2-  O98  1  0.54225000  0.23896667  0.74696667  1.0
  O2-  O99  1  0.04225000  0.23896667  0.08030000  1.0
  O2-  O100  1  0.04225000  0.23896667  0.41363333  1.0
  O2-  O101  1  0.04225000  0.23896667  0.74696667  1.0
  O2-  O102  1  0.54225000  0.73896667  0.08030000  1.0
  O2-  O103  1  0.54225000  0.73896667  0.41363333  1.0
  O2-  O104  1  0.54225000  0.73896667  0.74696667  1.0
  O2-  O105  1  0.04225000  0.73896667  0.08030000  1.0
  O2-  O106  1  0.04225000  0.73896667  0.41363333  1.0
  O2-  O107  1  0.04225000  0.73896667  0.74696667  1.0
  O2-  O108  1  0.95775000  0.48896667  0.08636667  1.0
  O2-  O109  1  0.95775000  0.48896667  0.41970000  1.0
  O2-  O110  1  0.95775000  0.48896667  0.75303333  1.0
  O2-  O111  1  0.45775000  0.48896667  0.08636667  1.0
  O2-  O112  1  0.45775000  0.48896667  0.41970000  1.0
  O2-  O113  1  0.45775000  0.48896667  0.75303333  1.0
  O2-  O114  1  0.95775000  0.98896667  0.08636667  1.0
  O2-  O115  1  0.95775000  0.98896667  0.41970000  1.0
  O2-  O116  1  0.95775000  0.98896667  0.75303333  1.0
  O2-  O117  1  0.45775000  0.98896667  0.08636667  1.0
  O2-  O118  1  0.45775000  0.98896667  0.41970000  1.0
  O2-  O119  1  0.45775000  0.98896667  0.75303333  1.0
  O2-  O120  1  0.95775000  0.59436667  0.25303333  1.0
  O2-  O121  1  0.95775000  0.59436667  0.58636667  1.0
  O2-  O122  1  0.95775000  0.59436667  0.91970000  1.0
  O2-  O123  1  0.45775000  0.59436667  0.25303333  1.0
  O2-  O124  1  0.45775000  0.59436667  0.58636667  1.0
  O2-  O125  1  0.45775000  0.59436667  0.91970000  1.0
  O2-  O126  1  0.95775000  0.09436667  0.25303333  1.0
  O2-  O127  1  0.95775000  0.09436667  0.58636667  1.0
  O2-  O128  1  0.95775000  0.09436667  0.91970000  1.0
  O2-  O129  1  0.45775000  0.09436667  0.25303333  1.0
  O2-  O130  1  0.45775000  0.09436667  0.58636667  1.0
  O2-  O131  1  0.45775000  0.09436667  0.91970000  1.0
  O2-  O132  1  0.54225000  0.34436667  0.24696667  1.0
  O2-  O133  1  0.54225000  0.34436667  0.58030000  1.0
  O2-  O134  1  0.54225000  0.34436667  0.91363333  1.0
  O2-  O135  1  0.04225000  0.34436667  0.24696667  1.0
  O2-  O136  1  0.04225000  0.34436667  0.58030000  1.0
  O2-  O137  1  0.04225000  0.34436667  0.91363333  1.0
  O2-  O138  1  0.54225000  0.84436667  0.24696667  1.0
  O2-  O139  1  0.54225000  0.84436667  0.58030000  1.0
  O2-  O140  1  0.54225000  0.84436667  0.91363333  1.0
  O2-  O141  1  0.04225000  0.84436667  0.24696667  1.0
  O2-  O142  1  0.04225000  0.84436667  0.58030000  1.0
  O2-  O143  1  0.04225000  0.84436667  0.91363333  1.0
  O2-  O144  1  0.67730000  0.52941667  0.06100000  1.0
  O2-  O145  1  0.67730000  0.52941667  0.39433333  1.0
  O2-  O146  1  0.67730000  0.52941667  0.72766667  1.0
  O2-  O147  1  0.17730000  0.52941667  0.06100000  1.0
  O2-  O148  1  0.17730000  0.52941667  0.39433333  1.0
  O2-  O149  1  0.17730000  0.52941667  0.72766667  1.0
  O2-  O150  1  0.67730000  0.02941667  0.06100000  1.0
  O2-  O151  1  0.67730000  0.02941667  0.39433333  1.0
  O2-  O152  1  0.67730000  0.02941667  0.72766667  1.0
  O2-  O153  1  0.17730000  0.02941667  0.06100000  1.0
  O2-  O154  1  0.17730000  0.02941667  0.39433333  1.0
  O2-  O155  1  0.17730000  0.02941667  0.72766667  1.0
  O2-  O156  1  0.82270000  0.27941667  0.10566667  1.0
  O2-  O157  1  0.82270000  0.27941667  0.43900000  1.0
  O2-  O158  1  0.82270000  0.27941667  0.77233333  1.0
  O2-  O159  1  0.32270000  0.27941667  0.10566667  1.0
  O2-  O160  1  0.32270000  0.27941667  0.43900000  1.0
  O2-  O161  1  0.32270000  0.27941667  0.77233333  1.0
  O2-  O162  1  0.82270000  0.77941667  0.10566667  1.0
  O2-  O163  1  0.82270000  0.77941667  0.43900000  1.0
  O2-  O164  1  0.82270000  0.77941667  0.77233333  1.0
  O2-  O165  1  0.32270000  0.77941667  0.10566667  1.0
  O2-  O166  1  0.32270000  0.77941667  0.43900000  1.0
  O2-  O167  1  0.32270000  0.77941667  0.77233333  1.0
  O2-  O168  1  0.82270000  0.30391667  0.27233333  1.0
  O2-  O169  1  0.82270000  0.30391667  0.60566667  1.0
  O2-  O170  1  0.82270000  0.30391667  0.93900000  1.0
  O2-  O171  1  0.32270000  0.30391667  0.27233333  1.0
  O2-  O172  1  0.32270000  0.30391667  0.60566667  1.0
  O2-  O173  1  0.32270000  0.30391667  0.93900000  1.0
  O2-  O174  1  0.82270000  0.80391667  0.27233333  1.0
  O2-  O175  1  0.82270000  0.80391667  0.60566667  1.0
  O2-  O176  1  0.82270000  0.80391667  0.93900000  1.0
  O2-  O177  1  0.32270000  0.80391667  0.27233333  1.0
  O2-  O178  1  0.32270000  0.80391667  0.60566667  1.0
  O2-  O179  1  0.32270000  0.80391667  0.93900000  1.0
  O2-  O180  1  0.67730000  0.55391667  0.22766667  1.0
  O2-  O181  1  0.67730000  0.55391667  0.56100000  1.0
  O2-  O182  1  0.67730000  0.55391667  0.89433333  1.0
  O2-  O183  1  0.17730000  0.55391667  0.22766667  1.0
  O2-  O184  1  0.17730000  0.55391667  0.56100000  1.0
  O2-  O185  1  0.17730000  0.55391667  0.89433333  1.0
  O2-  O186  1  0.67730000  0.05391667  0.22766667  1.0
  O2-  O187  1  0.67730000  0.05391667  0.56100000  1.0
  O2-  O188  1  0.67730000  0.05391667  0.89433333  1.0
  O2-  O189  1  0.17730000  0.05391667  0.22766667  1.0
  O2-  O190  1  0.17730000  0.05391667  0.56100000  1.0
  O2-  O191  1  0.17730000  0.05391667  0.89433333  1.0
