# generated using pymatgen
data_LiBO2
_symmetry_space_group_name_H-M   'P 1'
_cell_length_a   8.70600000
_cell_length_b   11.69000000
_cell_length_c   19.36200000
_cell_angle_alpha   115.09000000
_cell_angle_beta   90.00000000
_cell_angle_gamma   90.00000000
_symmetry_Int_Tables_number   1
_chemical_formula_structural   LiBO2
_chemical_formula_sum   'Li48 B48 O96'
_cell_volume   1784.59774169
_cell_formula_units_Z   48
loop_
 _symmetry_equiv_pos_site_id
 _symmetry_equiv_pos_as_xyz
  1  'x, y, z'
loop_
 _atom_type_symbol
 _atom_type_oxidation_number
  Li+  1.0
  B3+  3.0
  O2-  -2.0
loop_
 _atom_site_type_symbol
 _atom_site_label
 _atom_site_symmetry_multiplicity
 _atom_site_fract_x
 _atom_site_fract_y
 _atom_site_fract_z
 _atom_site_occupancy
  Li+  Li1  1  0.35725000  0.28345000  0.05196667  1.0
  Li+  Li1  1  0.35725000  0.28345000  0.38530000  1.0
  Li+  Li1  1  0.35725000  0.28345000  0.71863333  1.0
  Li+  Li1  1  0.35725000  0.78345000  0.05196667  1.0
  Li+  Li1  1  0.35725000  0.78345000  0.38530000  1.0
  Li+  Li1  1  0.35725000  0.78345000  0.71863333  1.0
  Li+  Li1  1  0.85725000  0.28345000  0.05196667  1.0
  Li+  Li1  1  0.85725000  0.28345000  0.38530000  1.0
  Li+  Li1  1  0.85725000  0.28345000  0.71863333  1.0
  Li+  Li1  1  0.85725000  0.78345000  0.05196667  1.0
  Li+  Li1  1  0.85725000  0.78345000  0.38530000  1.0
  Li+  Li1  1  0.85725000  0.78345000  0.71863333  1.0
  Li+  Li1  1  0.10725000  0.21655000  0.11470000  1.0
  Li+  Li1  1  0.10725000  0.21655000  0.44803333  1.0
  Li+  Li1  1  0.10725000  0.21655000  0.78136667  1.0
  Li+  Li1  1  0.10725000  0.71655000  0.11470000  1.0
  Li+  Li1  1  0.10725000  0.71655000  0.44803333  1.0
  Li+  Li1  1  0.10725000  0.71655000  0.78136667  1.0
  Li+  Li1  1  0.60725000  0.21655000  0.11470000  1.0
  Li+  Li1  1  0.60725000  0.21655000  0.44803333  1.0
  Li+  Li1  1  0.60725000  0.21655000  0.78136667  1.0
  Li+  Li1  1  0.60725000  0.71655000  0.11470000  1.0
  Li+  Li1  1  0.60725000  0.71655000  0.44803333  1.0
  Li+  Li1  1  0.60725000  0.71655000  0.78136667  1.0
  Li+  Li1  1  0.14275000  0.21655000  0.28136667  1.0
  Li+  Li1  1  0.14275000  0.21655000  0.61470000  1.0
  Li+  Li1  1  0.14275000  0.21655000  0.94803333  1.0
  Li+  Li1  1  0.14275000  0.71655000  0.28136667  1.0
  Li+  Li1  1  0.14275000  0.71655000  0.61470000  1.0
  Li+  Li1  1  0.14275000  0.71655000  0.94803333  1.0
  Li+  Li1  1  0.64275000  0.21655000  0.28136667  1.0
  Li+  Li1  1  0.64275000  0.21655000  0.61470000  1.0
  Li+  Li1  1  0.64275000  0.21655000  0.94803333  1.0
  Li+  Li1  1  0.64275000  0.71655000  0.28136667  1.0
  Li+  Li1  1  0.64275000  0.71655000  0.61470000  1.0
  Li+  Li1  1  0.64275000  0.71655000  0.94803333  1.0
  Li+  Li1  1  0.39275000  0.28345000  0.21863333  1.0
  Li+  Li1  1  0.39275000  0.28345000  0.55196667  1.0
  Li+  Li1  1  0.39275000  0.28345000  0.88530000  1.0
  Li+  Li1  1  0.39275000  0.78345000  0.21863333  1.0
  Li+  Li1  1  0.39275000  0.78345000  0.55196667  1.0
  Li+  Li1  1  0.39275000  0.78345000  0.88530000  1.0
  Li+  Li1  1  0.89275000  0.28345000  0.21863333  1.0
  Li+  Li1  1  0.89275000  0.28345000  0.55196667  1.0
  Li+  Li1  1  0.89275000  0.28345000  0.88530000  1.0
  Li+  Li1  1  0.89275000  0.78345000  0.21863333  1.0
  Li+  Li1  1  0.89275000  0.78345000  0.55196667  1.0
  Li+  Li1  1  0.89275000  0.78345000  0.88530000  1.0
  B3+  B1  1  0.08770000  0.43780000  0.07586667  1.0
  B3+  B1  1  0.08770000  0.43780000  0.40920000  1.0
  B3+  B1  1  0.08770000  0.43780000  0.74253333  1.0
  B3+  B1  1  0.08770000  0.93780000  0.07586667  1.0
  B3+  B1  1  0.08770000  0.93780000  0.40920000  1.0
  B3+  B1  1  0.08770000  0.93780000  0.74253333  1.0
  B3+  B1  1  0.58770000  0.43780000  0.07586667  1.0
  B3+  B1  1  0.58770000  0.43780000  0.40920000  1.0
  B3+  B1  1  0.58770000  0.43780000  0.74253333  1.0
  B3+  B1  1  0.58770000  0.93780000  0.07586667  1.0
  B3+  B1  1  0.58770000  0.93780000  0.40920000  1.0
  B3+  B1  1  0.58770000  0.93780000  0.74253333  1.0
  B3+  B1  1  0.33770000  0.06220000  0.09080000  1.0
  B3+  B1  1  0.33770000  0.06220000  0.42413333  1.0
  B3+  B1  1  0.33770000  0.06220000  0.75746667  1.0
  B3+  B1  1  0.33770000  0.56220000  0.09080000  1.0
  B3+  B1  1  0.33770000  0.56220000  0.42413333  1.0
  B3+  B1  1  0.33770000  0.56220000  0.75746667  1.0
  B3+  B1  1  0.83770000  0.06220000  0.09080000  1.0
  B3+  B1  1  0.83770000  0.06220000  0.42413333  1.0
  B3+  B1  1  0.83770000  0.06220000  0.75746667  1.0
  B3+  B1  1  0.83770000  0.56220000  0.09080000  1.0
  B3+  B1  1  0.83770000  0.56220000  0.42413333  1.0
  B3+  B1  1  0.83770000  0.56220000  0.75746667  1.0
  B3+  B1  1  0.41230000  0.06220000  0.25746667  1.0
  B3+  B1  1  0.41230000  0.06220000  0.59080000  1.0
  B3+  B1  1  0.41230000  0.06220000  0.92413333  1.0
  B3+  B1  1  0.41230000  0.56220000  0.25746667  1.0
  B3+  B1  1  0.41230000  0.56220000  0.59080000  1.0
  B3+  B1  1  0.41230000  0.56220000  0.92413333  1.0
  B3+  B1  1  0.91230000  0.06220000  0.25746667  1.0
  B3+  B1  1  0.91230000  0.06220000  0.59080000  1.0
  B3+  B1  1  0.91230000  0.06220000  0.92413333  1.0
  B3+  B1  1  0.91230000  0.56220000  0.25746667  1.0
  B3+  B1  1  0.91230000  0.56220000  0.59080000  1.0
  B3+  B1  1  0.91230000  0.56220000  0.92413333  1.0
  B3+  B1  1  0.16230000  0.43780000  0.24253333  1.0
  B3+  B1  1  0.16230000  0.43780000  0.57586667  1.0
  B3+  B1  1  0.16230000  0.43780000  0.90920000  1.0
  B3+  B1  1  0.16230000  0.93780000  0.24253333  1.0
  B3+  B1  1  0.16230000  0.93780000  0.57586667  1.0
  B3+  B1  1  0.16230000  0.93780000  0.90920000  1.0
  B3+  B1  1  0.66230000  0.43780000  0.24253333  1.0
  B3+  B1  1  0.66230000  0.43780000  0.57586667  1.0
  B3+  B1  1  0.66230000  0.43780000  0.90920000  1.0
  B3+  B1  1  0.66230000  0.93780000  0.24253333  1.0
  B3+  B1  1  0.66230000  0.93780000  0.57586667  1.0
  B3+  B1  1  0.66230000  0.93780000  0.90920000  1.0
  O2-  O1  1  0.42770000  0.45775000  0.08030000  1.0
  O2-  O1  1  0.42770000  0.45775000  0.41363333  1.0
  O2-  O1  1  0.42770000  0.45775000  0.74696667  1.0
  O2-  O1  1  0.42770000  0.95775000  0.08030000  1.0
  O2-  O1  1  0.42770000  0.95775000  0.41363333  1.0
  O2-  O1  1  0.42770000  0.95775000  0.74696667  1.0
  O2-  O1  1  0.92770000  0.45775000  0.08030000  1.0
  O2-  O1  1  0.92770000  0.45775000  0.41363333  1.0
  O2-  O1  1  0.92770000  0.45775000  0.74696667  1.0
  O2-  O1  1  0.92770000  0.95775000  0.08030000  1.0
  O2-  O1  1  0.92770000  0.95775000  0.41363333  1.0
  O2-  O1  1  0.92770000  0.95775000  0.74696667  1.0
  O2-  O1  1  0.17770000  0.04225000  0.08636667  1.0
  O2-  O1  1  0.17770000  0.04225000  0.41970000  1.0
  O2-  O1  1  0.17770000  0.04225000  0.75303333  1.0
  O2-  O1  1  0.17770000  0.54225000  0.08636667  1.0
  O2-  O1  1  0.17770000  0.54225000  0.41970000  1.0
  O2-  O1  1  0.17770000  0.54225000  0.75303333  1.0
  O2-  O1  1  0.67770000  0.04225000  0.08636667  1.0
  O2-  O1  1  0.67770000  0.04225000  0.41970000  1.0
  O2-  O1  1  0.67770000  0.04225000  0.75303333  1.0
  O2-  O1  1  0.67770000  0.54225000  0.08636667  1.0
  O2-  O1  1  0.67770000  0.54225000  0.41970000  1.0
  O2-  O1  1  0.67770000  0.54225000  0.75303333  1.0
  O2-  O1  1  0.07230000  0.04225000  0.25303333  1.0
  O2-  O1  1  0.07230000  0.04225000  0.58636667  1.0
  O2-  O1  1  0.07230000  0.04225000  0.91970000  1.0
  O2-  O1  1  0.07230000  0.54225000  0.25303333  1.0
  O2-  O1  1  0.07230000  0.54225000  0.58636667  1.0
  O2-  O1  1  0.07230000  0.54225000  0.91970000  1.0
  O2-  O1  1  0.57230000  0.04225000  0.25303333  1.0
  O2-  O1  1  0.57230000  0.04225000  0.58636667  1.0
  O2-  O1  1  0.57230000  0.04225000  0.91970000  1.0
  O2-  O1  1  0.57230000  0.54225000  0.25303333  1.0
  O2-  O1  1  0.57230000  0.54225000  0.58636667  1.0
  O2-  O1  1  0.57230000  0.54225000  0.91970000  1.0
  O2-  O1  1  0.32230000  0.45775000  0.24696667  1.0
  O2-  O1  1  0.32230000  0.45775000  0.58030000  1.0
  O2-  O1  1  0.32230000  0.45775000  0.91363333  1.0
  O2-  O1  1  0.32230000  0.95775000  0.24696667  1.0
  O2-  O1  1  0.32230000  0.95775000  0.58030000  1.0
  O2-  O1  1  0.32230000  0.95775000  0.91363333  1.0
  O2-  O1  1  0.82230000  0.45775000  0.24696667  1.0
  O2-  O1  1  0.82230000  0.45775000  0.58030000  1.0
  O2-  O1  1  0.82230000  0.45775000  0.91363333  1.0
  O2-  O1  1  0.82230000  0.95775000  0.24696667  1.0
  O2-  O1  1  0.82230000  0.95775000  0.58030000  1.0
  O2-  O1  1  0.82230000  0.95775000  0.91363333  1.0
  O2-  O2  1  0.13725000  0.32270000  0.06100000  1.0
  O2-  O2  1  0.13725000  0.32270000  0.39433333  1.0
  O2-  O2  1  0.13725000  0.32270000  0.72766667  1.0
  O2-  O2  1  0.13725000  0.82270000  0.06100000  1.0
  O2-  O2  1  0.13725000  0.82270000  0.39433333  1.0
  O2-  O2  1  0.13725000  0.82270000  0.72766667  1.0
  O2-  O2  1  0.63725000  0.32270000  0.06100000  1.0
  O2-  O2  1  0.63725000  0.32270000  0.39433333  1.0
  O2-  O2  1  0.63725000  0.32270000  0.72766667  1.0
  O2-  O2  1  0.63725000  0.82270000  0.06100000  1.0
  O2-  O2  1  0.63725000  0.82270000  0.39433333  1.0
  O2-  O2  1  0.63725000  0.82270000  0.72766667  1.0
  O2-  O2  1  0.38725000  0.17730000  0.10566667  1.0
  O2-  O2  1  0.38725000  0.17730000  0.43900000  1.0
  O2-  O2  1  0.38725000  0.17730000  0.77233333  1.0
  O2-  O2  1  0.38725000  0.67730000  0.10566667  1.0
  O2-  O2  1  0.38725000  0.67730000  0.43900000  1.0
  O2-  O2  1  0.38725000  0.67730000  0.77233333  1.0
  O2-  O2  1  0.88725000  0.17730000  0.10566667  1.0
  O2-  O2  1  0.88725000  0.17730000  0.43900000  1.0
  O2-  O2  1  0.88725000  0.17730000  0.77233333  1.0
  O2-  O2  1  0.88725000  0.67730000  0.10566667  1.0
  O2-  O2  1  0.88725000  0.67730000  0.43900000  1.0
  O2-  O2  1  0.88725000  0.67730000  0.77233333  1.0
  O2-  O2  1  0.36275000  0.17730000  0.27233333  1.0
  O2-  O2  1  0.36275000  0.17730000  0.60566667  1.0
  O2-  O2  1  0.36275000  0.17730000  0.93900000  1.0
  O2-  O2  1  0.36275000  0.67730000  0.27233333  1.0
  O2-  O2  1  0.36275000  0.67730000  0.60566667  1.0
  O2-  O2  1  0.36275000  0.67730000  0.93900000  1.0
  O2-  O2  1  0.86275000  0.17730000  0.27233333  1.0
  O2-  O2  1  0.86275000  0.17730000  0.60566667  1.0
  O2-  O2  1  0.86275000  0.17730000  0.93900000  1.0
  O2-  O2  1  0.86275000  0.67730000  0.27233333  1.0
  O2-  O2  1  0.86275000  0.67730000  0.60566667  1.0
  O2-  O2  1  0.86275000  0.67730000  0.93900000  1.0
  O2-  O2  1  0.11275000  0.32270000  0.22766667  1.0
  O2-  O2  1  0.11275000  0.32270000  0.56100000  1.0
  O2-  O2  1  0.11275000  0.32270000  0.89433333  1.0
  O2-  O2  1  0.11275000  0.82270000  0.22766667  1.0
  O2-  O2  1  0.11275000  0.82270000  0.56100000  1.0
  O2-  O2  1  0.11275000  0.82270000  0.89433333  1.0
  O2-  O2  1  0.61275000  0.32270000  0.22766667  1.0
  O2-  O2  1  0.61275000  0.32270000  0.56100000  1.0
  O2-  O2  1  0.61275000  0.32270000  0.89433333  1.0
  O2-  O2  1  0.61275000  0.82270000  0.22766667  1.0
  O2-  O2  1  0.61275000  0.82270000  0.56100000  1.0
  O2-  O2  1  0.61275000  0.82270000  0.89433333  1.0
