# generated using pymatgen
data_Li61SiSb9(S5I)10
_symmetry_space_group_name_H-M   'P 1'
_cell_length_a   36.80632217
_cell_length_b   14.72252887
_cell_length_c   7.36126443
_cell_angle_alpha   60.00000000
_cell_angle_beta   120.00000000
_cell_angle_gamma   120.00000000
_symmetry_Int_Tables_number   1
_chemical_formula_structural   Li61SiSb9(S5I)10
_chemical_formula_sum   'Li61 Si1 Sb9 S50 I10'
_cell_volume   2820.60491715
_cell_formula_units_Z   1
loop_
 _symmetry_equiv_pos_site_id
 _symmetry_equiv_pos_as_xyz
  1  'x, y, z'
loop_
 _atom_type_symbol
 _atom_type_oxidation_number
  Li+  1.0
  Si4+  4.0
  Sb5+  5.0
  S2-  -2.0
  I-  -1.0
loop_
 _atom_site_type_symbol
 _atom_site_label
 _atom_site_symmetry_multiplicity
 _atom_site_fract_x
 _atom_site_fract_y
 _atom_site_fract_z
 _atom_site_occupancy
  Li+  Li0  1  0.19536000  0.01160000  0.29580000  1.0
  Li+  Li1  1  0.59536000  0.51160000  0.29580000  1.0
  Li+  Li2  1  0.59439766  0.01114434  0.29534196  1.0
  Li+  Li3  1  0.99536000  0.01160000  0.29580000  1.0
  Li+  Li4  1  0.11844000  0.27290000  0.77320000  1.0
  Li+  Li5  1  0.31844000  0.77290000  0.77320000  1.0
  Li+  Li6  1  0.31844000  0.27290000  0.77320000  1.0
  Li+  Li7  1  0.52184201  0.77479297  0.77546702  1.0
  Li+  Li8  1  0.71799990  0.77185877  0.77617650  1.0
  Li+  Li9  1  0.91844000  0.77290000  0.77320000  1.0
  Li+  Li10  1  0.91805617  0.27171969  0.77401707  1.0
  Li+  Li11  1  0.19536000  0.51160000  0.15780000  1.0
  Li+  Li12  1  0.19536000  0.01160000  0.15780000  1.0
  Li+  Li13  1  0.39420343  0.01299518  0.15678820  1.0
  Li+  Li14  1  0.79536000  0.01160000  0.15780000  1.0
  Li+  Li15  1  0.99536000  0.51160000  0.15780000  1.0
  Li+  Li16  1  0.09084000  0.70390000  0.77320000  1.0
  Li+  Li17  1  0.29084000  0.70390000  0.77320000  1.0
  Li+  Li18  1  0.49084000  0.70390000  0.77320000  1.0
  Li+  Li19  1  0.49084000  0.20390000  0.77320000  1.0
  Li+  Li20  1  0.69084000  0.20390000  0.77320000  1.0
  Li+  Li21  1  0.88826863  0.70159613  0.77145463  1.0
  Li+  Li22  1  0.89252525  0.20234036  0.77517057  1.0
  Li+  Li23  1  0.09583075  0.51481126  0.77358960  1.0
  Li+  Li24  1  0.09084000  0.01160000  0.77320000  1.0
  Li+  Li25  1  0.28876800  0.51343354  0.76710510  1.0
  Li+  Li26  1  0.69084000  0.51160000  0.77320000  1.0
  Li+  Li27  1  0.69084000  0.01160000  0.77320000  1.0
  Li+  Li28  1  0.19536000  0.20390000  0.29580000  1.0
  Li+  Li29  1  0.59536000  0.70390000  0.29580000  1.0
  Li+  Li30  1  0.59584071  0.20073727  0.29910194  1.0
  Li+  Li31  1  0.99536000  0.70390000  0.29580000  1.0
  Li+  Li32  1  0.99536000  0.20390000  0.29580000  1.0
  Li+  Li33  1  0.31844000  0.51160000  0.77320000  1.0
  Li+  Li34  1  0.31844000  0.01160000  0.77320000  1.0
  Li+  Li35  1  0.91844000  0.01160000  0.77320000  1.0
  Li+  Li36  1  0.19536000  0.77290000  0.15780000  1.0
  Li+  Li37  1  0.39536000  0.77290000  0.15780000  1.0
  Li+  Li38  1  0.39536000  0.27290000  0.15780000  1.0
  Li+  Li39  1  0.59851024  0.27122628  0.16053950  1.0
  Li+  Li40  1  0.79444509  0.27267621  0.15414670  1.0
  Li+  Li41  1  0.99536000  0.27290000  0.15780000  1.0
  Li+  Li42  1  0.19536000  0.27290000  0.77320000  1.0
  Li+  Li43  1  0.39536000  0.77290000  0.77320000  1.0
  Li+  Li44  1  0.59536000  0.27290000  0.77320000  1.0
  Li+  Li45  1  0.79823552  0.77488346  0.77522696  1.0
  Li+  Li46  1  0.99536000  0.77290000  0.77320000  1.0
  Li+  Li47  1  0.99536000  0.27290000  0.77320000  1.0
  Li+  Li48  1  0.09084000  0.51160000  0.15780000  1.0
  Li+  Li49  1  0.09084000  0.01160000  0.15780000  1.0
  Li+  Li50  1  0.29084000  0.01160000  0.15780000  1.0
  Li+  Li51  1  0.88543986  0.50956730  0.15782690  1.0
  Li+  Li52  1  0.89084000  0.01160000  0.15780000  1.0
  Li+  Li53  1  0.39536000  0.20390000  0.77320000  1.0
  Li+  Li54  1  0.59536000  0.70390000  0.77320000  1.0
  Li+  Li55  1  0.79536000  0.70390000  0.77320000  1.0
  Li+  Li56  1  0.79536000  0.20390000  0.77320000  1.0
  Li+  Li57  1  0.31844000  0.51160000  0.29580000  1.0
  Li+  Li58  1  0.31844000  0.01160000  0.29580000  1.0
  Li+  Li59  1  0.51844000  0.01160000  0.29580000  1.0
  Li+  Li60  1  0.71844000  0.51160000  0.29580000  1.0
  Si4+  Si61  1  0.70000000  0.75000000  0.25000000  1.0
  Sb5+  Sb62  1  0.09439655  0.74669423  0.25258333  1.0
  Sb5+  Sb63  1  0.10239330  0.25386004  0.25257098  1.0
  Sb5+  Sb64  1  0.30000000  0.75000000  0.25000000  1.0
  Sb5+  Sb65  1  0.30000000  0.25000000  0.25000000  1.0
  Sb5+  Sb66  1  0.50097428  0.74806340  0.24882941  1.0
  Sb5+  Sb67  1  0.50000000  0.25000000  0.25000000  1.0
  Sb5+  Sb68  1  0.70000000  0.25000000  0.25000000  1.0
  Sb5+  Sb69  1  0.90000000  0.75000000  0.25000000  1.0
  Sb5+  Sb70  1  0.89850410  0.25261309  0.25053089  1.0
  S2-  S71  1  0.17684800  0.81404000  0.37808000  1.0
  S2-  S72  1  0.17684800  0.31404000  0.37808000  1.0
  S2-  S73  1  0.37684800  0.81404000  0.37808000  1.0
  S2-  S74  1  0.37920138  0.31189048  0.37718923  1.0
  S2-  S75  1  0.57682069  0.81633909  0.37791835  1.0
  S2-  S76  1  0.57684800  0.31404000  0.37808000  1.0
  S2-  S77  1  0.77684800  0.81404000  0.37808000  1.0
  S2-  S78  1  0.77684800  0.31404000  0.37808000  1.0
  S2-  S79  1  0.97780410  0.81479546  0.37798441  1.0
  S2-  S80  1  0.97684800  0.31404000  0.37808000  1.0
  S2-  S81  1  0.07438400  0.81404000  0.37808000  1.0
  S2-  S82  1  0.07438400  0.31404000  0.37808000  1.0
  S2-  S83  1  0.27438400  0.81404000  0.37808000  1.0
  S2-  S84  1  0.27438400  0.31404000  0.37808000  1.0
  S2-  S85  1  0.47438400  0.81404000  0.37808000  1.0
  S2-  S86  1  0.47151873  0.31650278  0.37962625  1.0
  S2-  S87  1  0.67438400  0.81404000  0.37808000  1.0
  S2-  S88  1  0.67366879  0.31186474  0.37581939  1.0
  S2-  S89  1  0.87634713  0.81667949  0.37747549  1.0
  S2-  S90  1  0.87093897  0.31425672  0.37846241  1.0
  S2-  S91  1  0.07438400  0.55788000  0.37808000  1.0
  S2-  S92  1  0.07885833  0.05770169  0.37896460  1.0
  S2-  S93  1  0.27438400  0.55788000  0.37808000  1.0
  S2-  S94  1  0.27438400  0.05788000  0.37808000  1.0
  S2-  S95  1  0.47438400  0.55788000  0.37808000  1.0
  S2-  S96  1  0.47438400  0.05788000  0.37808000  1.0
  S2-  S97  1  0.67517871  0.56014314  0.37692240  1.0
  S2-  S98  1  0.67438400  0.05788000  0.37808000  1.0
  S2-  S99  1  0.87438400  0.55788000  0.37808000  1.0
  S2-  S100  1  0.87331860  0.05802498  0.37756531  1.0
  S2-  S101  1  0.07438400  0.81404000  0.86576000  1.0
  S2-  S102  1  0.07438400  0.31404000  0.86576000  1.0
  S2-  S103  1  0.27438400  0.81404000  0.86576000  1.0
  S2-  S104  1  0.27438400  0.31404000  0.86576000  1.0
  S2-  S105  1  0.47438400  0.81404000  0.86576000  1.0
  S2-  S106  1  0.47438400  0.31404000  0.86576000  1.0
  S2-  S107  1  0.67421490  0.81005499  0.86452632  1.0
  S2-  S108  1  0.67438400  0.31404000  0.86576000  1.0
  S2-  S109  1  0.87438400  0.81404000  0.86576000  1.0
  S2-  S110  1  0.87438400  0.31404000  0.86576000  1.0
  S2-  S111  1  0.15000000  0.62500000  0.00000000  1.0
  S2-  S112  1  0.15000000  0.12500000  0.00000000  1.0
  S2-  S113  1  0.35000000  0.62500000  0.00000000  1.0
  S2-  S114  1  0.35000000  0.12500000  0.00000000  1.0
  S2-  S115  1  0.55000000  0.62500000  0.00000000  1.0
  S2-  S116  1  0.55000000  0.12500000  0.00000000  1.0
  S2-  S117  1  0.74688283  0.62150465  0.99721017  1.0
  S2-  S118  1  0.75000000  0.12500000  0.00000000  1.0
  S2-  S119  1  0.95000000  0.62500000  0.00000000  1.0
  S2-  S120  1  0.94989181  0.12287174  0.00084594  1.0
  I-  I121  1  0.00000000  0.00000000  0.75000000  1.0
  I-  I122  1  0.00000000  0.50000000  0.75000000  1.0
  I-  I123  1  0.20000000  0.00000000  0.75000000  1.0
  I-  I124  1  0.20000000  0.50000000  0.75000000  1.0
  I-  I125  1  0.40000000  0.00000000  0.75000000  1.0
  I-  I126  1  0.40000000  0.50000000  0.75000000  1.0
  I-  I127  1  0.60000000  0.00000000  0.75000000  1.0
  I-  I128  1  0.60000000  0.50000000  0.75000000  1.0
  I-  I129  1  0.80262150  0.99640578  0.74835389  1.0
  I-  I130  1  0.80000000  0.50000000  0.75000000  1.0
