# generated using pymatgen
data_Li61SiSb9(S5I)10
_symmetry_space_group_name_H-M   'P 1'
_cell_length_a   36.80632217
_cell_length_b   7.36126443
_cell_length_c   14.72252887
_cell_angle_alpha   60.00000000
_cell_angle_beta   60.00000000
_cell_angle_gamma   60.00000000
_symmetry_Int_Tables_number   1
_chemical_formula_structural   Li61SiSb9(S5I)10
_chemical_formula_sum   'Li61 Si1 Sb9 S50 I10'
_cell_volume   2820.60491715
_cell_formula_units_Z   1
loop_
 _symmetry_equiv_pos_site_id
 _symmetry_equiv_pos_as_xyz
  1  'x, y, z'
loop_
 _atom_type_symbol
 _atom_type_oxidation_number
  Li+  1.0
  Si4+  4.0
  Sb5+  5.0
  S2-  -2.0
  I-  -1.0
loop_
 _atom_site_type_symbol
 _atom_site_label
 _atom_site_symmetry_multiplicity
 _atom_site_fract_x
 _atom_site_fract_y
 _atom_site_fract_z
 _atom_site_occupancy
  Li+  Li0  1  0.19536000  0.45420000  0.98840000  1.0
  Li+  Li1  1  0.59536000  0.45420000  0.48840000  1.0
  Li+  Li2  1  0.59536000  0.45420000  0.98840000  1.0
  Li+  Li3  1  0.99536000  0.45420000  0.98840000  1.0
  Li+  Li4  1  0.11844000  0.97680000  0.72710000  1.0
  Li+  Li5  1  0.31844000  0.97680000  0.22710000  1.0
  Li+  Li6  1  0.31844000  0.97680000  0.72710000  1.0
  Li+  Li7  1  0.51844000  0.97680000  0.22710000  1.0
  Li+  Li8  1  0.71844000  0.97680000  0.22710000  1.0
  Li+  Li9  1  0.91844000  0.97680000  0.22710000  1.0
  Li+  Li10  1  0.91844000  0.97680000  0.72710000  1.0
  Li+  Li11  1  0.19536000  0.59220000  0.48840000  1.0
  Li+  Li12  1  0.19536000  0.59220000  0.98840000  1.0
  Li+  Li13  1  0.39536000  0.59220000  0.98840000  1.0
  Li+  Li14  1  0.79536000  0.59220000  0.98840000  1.0
  Li+  Li15  1  0.99536000  0.59220000  0.48840000  1.0
  Li+  Li16  1  0.09084000  0.97680000  0.29610000  1.0
  Li+  Li17  1  0.29084000  0.97680000  0.29610000  1.0
  Li+  Li18  1  0.49084000  0.97680000  0.29610000  1.0
  Li+  Li19  1  0.49084000  0.97680000  0.79610000  1.0
  Li+  Li20  1  0.69084000  0.97680000  0.79610000  1.0
  Li+  Li21  1  0.89084000  0.97680000  0.29610000  1.0
  Li+  Li22  1  0.89084000  0.97680000  0.79610000  1.0
  Li+  Li23  1  0.09084000  0.97680000  0.48840000  1.0
  Li+  Li24  1  0.09084000  0.97680000  0.98840000  1.0
  Li+  Li25  1  0.29084000  0.97680000  0.48840000  1.0
  Li+  Li26  1  0.69084000  0.97680000  0.48840000  1.0
  Li+  Li27  1  0.69084000  0.97680000  0.98840000  1.0
  Li+  Li28  1  0.19536000  0.45420000  0.79610000  1.0
  Li+  Li29  1  0.59536000  0.45420000  0.29610000  1.0
  Li+  Li30  1  0.59536000  0.45420000  0.79610000  1.0
  Li+  Li31  1  0.99536000  0.45420000  0.29610000  1.0
  Li+  Li32  1  0.99536000  0.45420000  0.79610000  1.0
  Li+  Li33  1  0.31844000  0.97680000  0.48840000  1.0
  Li+  Li34  1  0.31844000  0.97680000  0.98840000  1.0
  Li+  Li35  1  0.91844000  0.97680000  0.98840000  1.0
  Li+  Li36  1  0.19536000  0.59220000  0.22710000  1.0
  Li+  Li37  1  0.39536000  0.59220000  0.22710000  1.0
  Li+  Li38  1  0.39536000  0.59220000  0.72710000  1.0
  Li+  Li39  1  0.59536000  0.59220000  0.72710000  1.0
  Li+  Li40  1  0.79536000  0.59220000  0.72710000  1.0
  Li+  Li41  1  0.99536000  0.59220000  0.72710000  1.0
  Li+  Li42  1  0.19536000  0.97680000  0.72710000  1.0
  Li+  Li43  1  0.39536000  0.97680000  0.22710000  1.0
  Li+  Li44  1  0.59536000  0.97680000  0.72710000  1.0
  Li+  Li45  1  0.79536000  0.97680000  0.22710000  1.0
  Li+  Li46  1  0.99536000  0.97680000  0.22710000  1.0
  Li+  Li47  1  0.99536000  0.97680000  0.72710000  1.0
  Li+  Li48  1  0.09084000  0.59220000  0.48840000  1.0
  Li+  Li49  1  0.09084000  0.59220000  0.98840000  1.0
  Li+  Li50  1  0.29084000  0.59220000  0.98840000  1.0
  Li+  Li51  1  0.89084000  0.59220000  0.48840000  1.0
  Li+  Li52  1  0.89084000  0.59220000  0.98840000  1.0
  Li+  Li53  1  0.39536000  0.97680000  0.79610000  1.0
  Li+  Li54  1  0.59536000  0.97680000  0.29610000  1.0
  Li+  Li55  1  0.79536000  0.97680000  0.29610000  1.0
  Li+  Li56  1  0.79536000  0.97680000  0.79610000  1.0
  Li+  Li57  1  0.31844000  0.45420000  0.48840000  1.0
  Li+  Li58  1  0.31844000  0.45420000  0.98840000  1.0
  Li+  Li59  1  0.51844000  0.45420000  0.98840000  1.0
  Li+  Li60  1  0.71844000  0.45420000  0.48840000  1.0
  Si4+  Si61  1  0.70000000  0.50000000  0.25000000  1.0
  Sb5+  Sb62  1  0.10000000  0.50000000  0.25000000  1.0
  Sb5+  Sb63  1  0.10000000  0.50000000  0.75000000  1.0
  Sb5+  Sb64  1  0.30000000  0.50000000  0.25000000  1.0
  Sb5+  Sb65  1  0.30000000  0.50000000  0.75000000  1.0
  Sb5+  Sb66  1  0.50000000  0.50000000  0.25000000  1.0
  Sb5+  Sb67  1  0.50000000  0.50000000  0.75000000  1.0
  Sb5+  Sb68  1  0.70000000  0.50000000  0.75000000  1.0
  Sb5+  Sb69  1  0.90000000  0.50000000  0.25000000  1.0
  Sb5+  Sb70  1  0.90000000  0.50000000  0.75000000  1.0
  S2-  S2  1  0.17684800  0.37192000  0.18596000  1.0
  S2-  S2  1  0.17684800  0.37192000  0.68596000  1.0
  S2-  S2  1  0.37684800  0.37192000  0.18596000  1.0
  S2-  S2  1  0.37684800  0.37192000  0.68596000  1.0
  S2-  S2  1  0.57684800  0.37192000  0.18596000  1.0
  S2-  S2  1  0.57684800  0.37192000  0.68596000  1.0
  S2-  S2  1  0.77684800  0.37192000  0.18596000  1.0
  S2-  S2  1  0.77684800  0.37192000  0.68596000  1.0
  S2-  S2  1  0.97684800  0.37192000  0.18596000  1.0
  S2-  S2  1  0.97684800  0.37192000  0.68596000  1.0
  S2-  S2  1  0.07438400  0.37192000  0.18596000  1.0
  S2-  S2  1  0.07438400  0.37192000  0.68596000  1.0
  S2-  S2  1  0.27438400  0.37192000  0.18596000  1.0
  S2-  S2  1  0.27438400  0.37192000  0.68596000  1.0
  S2-  S2  1  0.47438400  0.37192000  0.18596000  1.0
  S2-  S2  1  0.47438400  0.37192000  0.68596000  1.0
  S2-  S2  1  0.67438400  0.37192000  0.18596000  1.0
  S2-  S2  1  0.67438400  0.37192000  0.68596000  1.0
  S2-  S2  1  0.87438400  0.37192000  0.18596000  1.0
  S2-  S2  1  0.87438400  0.37192000  0.68596000  1.0
  S2-  S2  1  0.07438400  0.37192000  0.44212000  1.0
  S2-  S2  1  0.07438400  0.37192000  0.94212000  1.0
  S2-  S2  1  0.27438400  0.37192000  0.44212000  1.0
  S2-  S2  1  0.27438400  0.37192000  0.94212000  1.0
  S2-  S2  1  0.47438400  0.37192000  0.44212000  1.0
  S2-  S2  1  0.47438400  0.37192000  0.94212000  1.0
  S2-  S2  1  0.67438400  0.37192000  0.44212000  1.0
  S2-  S2  1  0.67438400  0.37192000  0.94212000  1.0
  S2-  S2  1  0.87438400  0.37192000  0.44212000  1.0
  S2-  S2  1  0.87438400  0.37192000  0.94212000  1.0
  S2-  S2  1  0.07438400  0.88424000  0.18596000  1.0
  S2-  S2  1  0.07438400  0.88424000  0.68596000  1.0
  S2-  S2  1  0.27438400  0.88424000  0.18596000  1.0
  S2-  S2  1  0.27438400  0.88424000  0.68596000  1.0
  S2-  S2  1  0.47438400  0.88424000  0.18596000  1.0
  S2-  S2  1  0.47438400  0.88424000  0.68596000  1.0
  S2-  S2  1  0.67438400  0.88424000  0.18596000  1.0
  S2-  S2  1  0.67438400  0.88424000  0.68596000  1.0
  S2-  S2  1  0.87438400  0.88424000  0.18596000  1.0
  S2-  S2  1  0.87438400  0.88424000  0.68596000  1.0
  S2-  S111  1  0.15000000  0.75000000  0.37500000  1.0
  S2-  S112  1  0.15000000  0.75000000  0.87500000  1.0
  S2-  S113  1  0.35000000  0.75000000  0.37500000  1.0
  S2-  S114  1  0.35000000  0.75000000  0.87500000  1.0
  S2-  S115  1  0.55000000  0.75000000  0.37500000  1.0
  S2-  S116  1  0.55000000  0.75000000  0.87500000  1.0
  S2-  S117  1  0.75000000  0.75000000  0.37500000  1.0
  S2-  S118  1  0.75000000  0.75000000  0.87500000  1.0
  S2-  S119  1  0.95000000  0.75000000  0.37500000  1.0
  S2-  S120  1  0.95000000  0.75000000  0.87500000  1.0
  I-  I121  1  0.00000000  0.00000000  0.00000000  1.0
  I-  I122  1  0.00000000  0.00000000  0.50000000  1.0
  I-  I123  1  0.20000000  0.00000000  0.00000000  1.0
  I-  I124  1  0.20000000  0.00000000  0.50000000  1.0
  I-  I125  1  0.40000000  0.00000000  0.00000000  1.0
  I-  I126  1  0.40000000  0.00000000  0.50000000  1.0
  I-  I127  1  0.60000000  0.00000000  0.00000000  1.0
  I-  I128  1  0.60000000  0.00000000  0.50000000  1.0
  I-  I129  1  0.80000000  0.00000000  0.00000000  1.0
  I-  I130  1  0.80000000  0.00000000  0.50000000  1.0
