# generated using pymatgen
data_Li5Ti2Sn8(PO4)15
_symmetry_space_group_name_H-M   'P 1'
_cell_length_a   8.61210000
_cell_length_b   43.06050000
_cell_length_c   8.68359458
_cell_angle_alpha   60.27198347
_cell_angle_beta   60.27198347
_cell_angle_gamma   60.00000000
_symmetry_Int_Tables_number   1
_chemical_formula_structural   Li5Ti2Sn8(PO4)15
_chemical_formula_sum   'Li10 Ti4 Sn16 P30 O120'
_cell_volume   2286.36672419
_cell_formula_units_Z   2
loop_
 _symmetry_equiv_pos_site_id
 _symmetry_equiv_pos_as_xyz
  1  'x, y, z'
loop_
 _atom_type_symbol
 _atom_type_oxidation_number
  Li+  1.0
  Ti4+  4.0
  Sn4+  4.0
  P5+  5.0
  O2-  -2.0
loop_
 _atom_site_type_symbol
 _atom_site_label
 _atom_site_symmetry_multiplicity
 _atom_site_fract_x
 _atom_site_fract_y
 _atom_site_fract_z
 _atom_site_occupancy
  Li+  Li1  1  0.50000000  0.10000000  0.50000000  1.0
  Li+  Li1  1  0.50000000  0.30000000  0.50000000  1.0
  Li+  Li1  1  0.50000000  0.50000000  0.50000000  1.0
  Li+  Li1  1  0.50000000  0.70000000  0.50000000  1.0
  Li+  Li1  1  0.50000000  0.90000000  0.50000000  1.0
  Li+  Li1  1  0.00000000  0.00000000  0.00000000  1.0
  Li+  Li1  1  0.00000000  0.20000000  0.00000000  1.0
  Li+  Li1  1  0.00000000  0.40000000  0.00000000  1.0
  Li+  Li1  1  1.00000000  0.60000000  0.00000000  1.0
  Li+  Li1  1  0.00000000  0.80000000  1.00000000  1.0
  Ti4+  Ti10  1  0.35690000  0.87138000  0.92930000  1.0
  Ti4+  Ti11  1  0.85690000  0.77138000  0.42930000  1.0
  Ti4+  Ti12  1  0.14310000  0.02862000  0.57070000  1.0
  Ti4+  Ti13  1  0.14310000  0.22862000  0.57070000  1.0
  Sn4+  Sn14  1  0.35690000  0.07138000  0.92930000  1.0
  Sn4+  Sn15  1  0.35690000  0.27138000  0.92930000  1.0
  Sn4+  Sn16  1  0.35690000  0.47138000  0.92930000  1.0
  Sn4+  Sn17  1  0.35690000  0.67138000  0.92930000  1.0
  Sn4+  Sn18  1  0.85690000  0.17138000  0.42930000  1.0
  Sn4+  Sn19  1  0.85690000  0.37138000  0.42930000  1.0
  Sn4+  Sn20  1  0.85690000  0.57138000  0.42930000  1.0
  Sn4+  Sn21  1  0.85690000  0.97138000  0.42930000  1.0
  Sn4+  Sn22  1  0.64310000  0.12862000  0.07070000  1.0
  Sn4+  Sn23  1  0.64310000  0.32862000  0.07070000  1.0
  Sn4+  Sn24  1  0.64310000  0.52862000  0.07070000  1.0
  Sn4+  Sn25  1  0.64310000  0.72862000  0.07070000  1.0
  Sn4+  Sn26  1  0.64310000  0.92862000  0.07070000  1.0
  Sn4+  Sn27  1  0.14310000  0.42862000  0.57070000  1.0
  Sn4+  Sn28  1  0.14310000  0.62862000  0.57070000  1.0
  Sn4+  Sn29  1  0.14310000  0.82862000  0.57070000  1.0
  P5+  P1  1  0.25000000  0.19170000  0.25000000  1.0
  P5+  P1  1  0.25000000  0.39170000  0.25000000  1.0
  P5+  P1  1  0.25000000  0.59170000  0.25000000  1.0
  P5+  P1  1  0.25000000  0.79170000  0.25000000  1.0
  P5+  P1  1  0.25000000  0.99170000  0.25000000  1.0
  P5+  P1  1  0.54150000  0.05000000  0.25000000  1.0
  P5+  P1  1  0.54150000  0.25000000  0.25000000  1.0
  P5+  P1  1  0.54150000  0.45000000  0.25000000  1.0
  P5+  P1  1  0.54150000  0.65000000  0.25000000  1.0
  P5+  P1  1  0.54150000  0.85000000  0.25000000  1.0
  P5+  P1  1  0.95850000  0.10830000  0.25000000  1.0
  P5+  P1  1  0.95850000  0.30830000  0.25000000  1.0
  P5+  P1  1  0.95850000  0.50830000  0.25000000  1.0
  P5+  P1  1  0.95850000  0.70830000  0.25000000  1.0
  P5+  P1  1  0.95850000  0.90830000  0.25000000  1.0
  P5+  P1  1  0.45850000  0.15000000  0.75000000  1.0
  P5+  P1  1  0.45850000  0.35000000  0.75000000  1.0
  P5+  P1  1  0.45850000  0.55000000  0.75000000  1.0
  P5+  P1  1  0.45850000  0.75000000  0.75000000  1.0
  P5+  P1  1  0.45850000  0.95000000  0.75000000  1.0
  P5+  P1  1  0.04150000  0.09170000  0.75000000  1.0
  P5+  P1  1  0.04150000  0.29170000  0.75000000  1.0
  P5+  P1  1  0.04150000  0.49170000  0.75000000  1.0
  P5+  P1  1  0.04150000  0.69170000  0.75000000  1.0
  P5+  P1  1  0.04150000  0.89170000  0.75000000  1.0
  P5+  P1  1  0.75000000  0.00830000  0.75000000  1.0
  P5+  P1  1  0.75000000  0.20830000  0.75000000  1.0
  P5+  P1  1  0.75000000  0.40830000  0.75000000  1.0
  P5+  P1  1  0.75000000  0.60830000  0.75000000  1.0
  P5+  P1  1  0.75000000  0.80830000  0.75000000  1.0
  O2-  O1  1  0.30270000  0.02348000  0.07240000  1.0
  O2-  O1  1  0.30270000  0.22348000  0.07240000  1.0
  O2-  O1  1  0.30270000  0.42348000  0.07240000  1.0
  O2-  O1  1  0.30270000  0.62348000  0.07240000  1.0
  O2-  O1  1  0.30270000  0.82348000  0.07240000  1.0
  O2-  O1  1  0.50750000  0.06054000  0.07240000  1.0
  O2-  O1  1  0.50750000  0.26054000  0.07240000  1.0
  O2-  O1  1  0.50750000  0.46054000  0.07240000  1.0
  O2-  O1  1  0.50750000  0.66054000  0.07240000  1.0
  O2-  O1  1  0.50750000  0.86054000  0.07240000  1.0
  O2-  O1  1  0.11740000  0.10150000  0.07240000  1.0
  O2-  O1  1  0.11740000  0.30150000  0.07240000  1.0
  O2-  O1  1  0.11740000  0.50150000  0.07240000  1.0
  O2-  O1  1  0.11740000  0.70150000  0.07240000  1.0
  O2-  O1  1  0.11740000  0.90150000  0.07240000  1.0
  O2-  O1  1  0.61740000  0.16054000  0.57240000  1.0
  O2-  O1  1  0.61740000  0.36054000  0.57240000  1.0
  O2-  O1  1  0.61740000  0.56054000  0.57240000  1.0
  O2-  O1  1  0.61740000  0.76054000  0.57240000  1.0
  O2-  O1  1  0.61740000  0.96054000  0.57240000  1.0
  O2-  O1  1  0.00750000  0.12348000  0.57240000  1.0
  O2-  O1  1  0.00750000  0.32348000  0.57240000  1.0
  O2-  O1  1  0.00750000  0.52348000  0.57240000  1.0
  O2-  O1  1  0.00750000  0.72348000  0.57240000  1.0
  O2-  O1  1  0.00750000  0.92348000  0.57240000  1.0
  O2-  O1  1  0.80270000  0.00150000  0.57240000  1.0
  O2-  O1  1  0.80270000  0.20150000  0.57240000  1.0
  O2-  O1  1  0.80270000  0.40150000  0.57240000  1.0
  O2-  O1  1  0.80270000  0.60150000  0.57240000  1.0
  O2-  O1  1  0.80270000  0.80150000  0.57240000  1.0
  O2-  O1  1  0.69730000  0.17652000  0.92760000  1.0
  O2-  O1  1  0.69730000  0.37652000  0.92760000  1.0
  O2-  O1  1  0.69730000  0.57652000  0.92760000  1.0
  O2-  O1  1  0.69730000  0.77652000  0.92760000  1.0
  O2-  O1  1  0.69730000  0.97652000  0.92760000  1.0
  O2-  O1  1  0.49250000  0.13946000  0.92760000  1.0
  O2-  O1  1  0.49250000  0.33946000  0.92760000  1.0
  O2-  O1  1  0.49250000  0.53946000  0.92760000  1.0
  O2-  O1  1  0.49250000  0.73946000  0.92760000  1.0
  O2-  O1  1  0.49250000  0.93946000  0.92760000  1.0
  O2-  O1  1  0.88260000  0.09850000  0.92760000  1.0
  O2-  O1  1  0.88260000  0.29850000  0.92760000  1.0
  O2-  O1  1  0.88260000  0.49850000  0.92760000  1.0
  O2-  O1  1  0.88260000  0.69850000  0.92760000  1.0
  O2-  O1  1  0.88260000  0.89850000  0.92760000  1.0
  O2-  O1  1  0.38260000  0.03946000  0.42760000  1.0
  O2-  O1  1  0.38260000  0.23946000  0.42760000  1.0
  O2-  O1  1  0.38260000  0.43946000  0.42760000  1.0
  O2-  O1  1  0.38260000  0.63946000  0.42760000  1.0
  O2-  O1  1  0.38260000  0.83946000  0.42760000  1.0
  O2-  O1  1  0.99250000  0.07652000  0.42760000  1.0
  O2-  O1  1  0.99250000  0.27652000  0.42760000  1.0
  O2-  O1  1  0.99250000  0.47652000  0.42760000  1.0
  O2-  O1  1  0.99250000  0.67652000  0.42760000  1.0
  O2-  O1  1  0.99250000  0.87652000  0.42760000  1.0
  O2-  O1  1  0.19730000  0.19850000  0.42760000  1.0
  O2-  O1  1  0.19730000  0.39850000  0.42760000  1.0
  O2-  O1  1  0.19730000  0.59850000  0.42760000  1.0
  O2-  O1  1  0.19730000  0.79850000  0.42760000  1.0
  O2-  O1  1  0.19730000  0.99850000  0.42760000  1.0
  O2-  O2  1  0.58500000  0.04606000  0.74570000  1.0
  O2-  O2  1  0.58500000  0.24606000  0.74570000  1.0
  O2-  O2  1  0.58500000  0.44606000  0.74570000  1.0
  O2-  O2  1  0.58500000  0.64606000  0.74570000  1.0
  O2-  O2  1  0.58500000  0.84606000  0.74570000  1.0
  O2-  O2  1  0.43900000  0.11700000  0.74570000  1.0
  O2-  O2  1  0.43900000  0.31700000  0.74570000  1.0
  O2-  O2  1  0.43900000  0.51700000  0.74570000  1.0
  O2-  O2  1  0.43900000  0.71700000  0.74570000  1.0
  O2-  O2  1  0.43900000  0.91700000  0.74570000  1.0
  O2-  O2  1  0.23030000  0.08780000  0.74570000  1.0
  O2-  O2  1  0.23030000  0.28780000  0.74570000  1.0
  O2-  O2  1  0.23030000  0.48780000  0.74570000  1.0
  O2-  O2  1  0.23030000  0.68780000  0.74570000  1.0
  O2-  O2  1  0.23030000  0.88780000  0.74570000  1.0
  O2-  O2  1  0.73030000  0.01700000  0.24570000  1.0
  O2-  O2  1  0.73030000  0.21700000  0.24570000  1.0
  O2-  O2  1  0.73030000  0.41700000  0.24570000  1.0
  O2-  O2  1  0.73030000  0.61700000  0.24570000  1.0
  O2-  O2  1  0.73030000  0.81700000  0.24570000  1.0
  O2-  O2  1  0.93900000  0.14606000  0.24570000  1.0
  O2-  O2  1  0.93900000  0.34606000  0.24570000  1.0
  O2-  O2  1  0.93900000  0.54606000  0.24570000  1.0
  O2-  O2  1  0.93900000  0.74606000  0.24570000  1.0
  O2-  O2  1  0.93900000  0.94606000  0.24570000  1.0
  O2-  O2  1  0.08500000  0.18780000  0.24570000  1.0
  O2-  O2  1  0.08500000  0.38780000  0.24570000  1.0
  O2-  O2  1  0.08500000  0.58780000  0.24570000  1.0
  O2-  O2  1  0.08500000  0.78780000  0.24570000  1.0
  O2-  O2  1  0.08500000  0.98780000  0.24570000  1.0
  O2-  O2  1  0.41500000  0.15394000  0.25430000  1.0
  O2-  O2  1  0.41500000  0.35394000  0.25430000  1.0
  O2-  O2  1  0.41500000  0.55394000  0.25430000  1.0
  O2-  O2  1  0.41500000  0.75394000  0.25430000  1.0
  O2-  O2  1  0.41500000  0.95394000  0.25430000  1.0
  O2-  O2  1  0.56100000  0.08300000  0.25430000  1.0
  O2-  O2  1  0.56100000  0.28300000  0.25430000  1.0
  O2-  O2  1  0.56100000  0.48300000  0.25430000  1.0
  O2-  O2  1  0.56100000  0.68300000  0.25430000  1.0
  O2-  O2  1  0.56100000  0.88300000  0.25430000  1.0
  O2-  O2  1  0.76970000  0.11220000  0.25430000  1.0
  O2-  O2  1  0.76970000  0.31220000  0.25430000  1.0
  O2-  O2  1  0.76970000  0.51220000  0.25430000  1.0
  O2-  O2  1  0.76970000  0.71220000  0.25430000  1.0
  O2-  O2  1  0.76970000  0.91220000  0.25430000  1.0
  O2-  O2  1  0.26970000  0.18300000  0.75430000  1.0
  O2-  O2  1  0.26970000  0.38300000  0.75430000  1.0
  O2-  O2  1  0.26970000  0.58300000  0.75430000  1.0
  O2-  O2  1  0.26970000  0.78300000  0.75430000  1.0
  O2-  O2  1  0.26970000  0.98300000  0.75430000  1.0
  O2-  O2  1  0.06100000  0.05394000  0.75430000  1.0
  O2-  O2  1  0.06100000  0.25394000  0.75430000  1.0
  O2-  O2  1  0.06100000  0.45394000  0.75430000  1.0
  O2-  O2  1  0.06100000  0.65394000  0.75430000  1.0
  O2-  O2  1  0.06100000  0.85394000  0.75430000  1.0
  O2-  O2  1  0.91500000  0.01220000  0.75430000  1.0
  O2-  O2  1  0.91500000  0.21220000  0.75430000  1.0
  O2-  O2  1  0.91500000  0.41220000  0.75430000  1.0
  O2-  O2  1  0.91500000  0.61220000  0.75430000  1.0
  O2-  O2  1  0.91500000  0.81220000  0.75430000  1.0
