# generated using pymatgen
data_Li29Si6(PO16)2
_symmetry_space_group_name_H-M   'P 1'
_cell_length_a   10.21072000
_cell_length_b   12.22450000
_cell_length_c   10.59342000
_cell_angle_alpha   90.00000000
_cell_angle_beta   89.63080000
_cell_angle_gamma   90.00000000
_symmetry_Int_Tables_number   1
_chemical_formula_structural   Li29Si6(PO16)2
_chemical_formula_sum   'Li58 Si12 P4 O64'
_cell_volume   1322.25326079
_cell_formula_units_Z   2
loop_
 _symmetry_equiv_pos_site_id
 _symmetry_equiv_pos_as_xyz
  1  'x, y, z'
loop_
 _atom_type_symbol
 _atom_type_oxidation_number
  Li+  1.0
  Si4+  4.0
  P5+  5.0
  O2-  -2.0
loop_
 _atom_site_type_symbol
 _atom_site_label
 _atom_site_symmetry_multiplicity
 _atom_site_fract_x
 _atom_site_fract_y
 _atom_site_fract_z
 _atom_site_occupancy
  Li+  Li0  1  0.97050000  0.72900000  0.97300000  1.0
  Li+  Li1  1  0.97050000  0.22900000  0.97300000  1.0
  Li+  Li2  1  0.47307591  0.52435025  0.97138735  1.0
  Li+  Li3  1  0.47050000  0.02100000  0.97300000  1.0
  Li+  Li4  1  0.97050000  0.52100000  0.97300000  1.0
  Li+  Li5  1  0.97050000  0.02100000  0.97300000  1.0
  Li+  Li6  1  0.48600000  0.62500000  0.23450000  1.0
  Li+  Li7  1  0.48600000  0.12500000  0.23450000  1.0
  Li+  Li8  1  0.51400000  0.87500000  0.26550000  1.0
  Li+  Li9  1  0.51447271  0.37274248  0.26337867  1.0
  Li+  Li10  1  0.80850000  0.76600000  0.82550000  1.0
  Li+  Li11  1  0.80850000  0.26600000  0.82550000  1.0
  Li+  Li12  1  0.19150000  0.73400000  0.67450000  1.0
  Li+  Li13  1  0.19150000  0.23400000  0.67450000  1.0
  Li+  Li14  1  0.69150000  0.73400000  0.17450000  1.0
  Li+  Li15  1  0.69150000  0.23400000  0.17450000  1.0
  Li+  Li16  1  0.30594192  0.98630677  0.32460242  1.0
  Li+  Li17  1  0.31099545  0.48613652  0.32514032  1.0
  Li+  Li18  1  0.80970158  0.98550812  0.82315821  1.0
  Li+  Li19  1  0.80850000  0.48400000  0.82550000  1.0
  Li+  Li20  1  0.31100000  0.62500000  0.60000000  1.0
  Li+  Li21  1  0.31100000  0.12500000  0.60000000  1.0
  Li+  Li22  1  0.31100000  0.62500000  0.10000000  1.0
  Li+  Li23  1  0.31100000  0.12500000  0.10000000  1.0
  Li+  Li24  1  0.18900000  0.87500000  0.40000000  1.0
  Li+  Li25  1  0.18900000  0.37500000  0.40000000  1.0
  Li+  Li26  1  0.68900000  0.87500000  0.40000000  1.0
  Li+  Li27  1  0.68900000  0.37500000  0.40000000  1.0
  Li+  Li28  1  0.68900000  0.87500000  0.90000000  1.0
  Li+  Li29  1  0.68900000  0.37500000  0.90000000  1.0
  Li+  Li30  1  0.41340000  0.75010000  0.33715000  1.0
  Li+  Li31  1  0.41340000  0.25010000  0.33715000  1.0
  Li+  Li32  1  0.41457689  0.74918066  0.83613313  1.0
  Li+  Li33  1  0.41340000  0.25010000  0.83715000  1.0
  Li+  Li34  1  0.91340000  0.75010000  0.33715000  1.0
  Li+  Li35  1  0.91340000  0.25010000  0.33715000  1.0
  Li+  Li36  1  0.08660000  0.50010000  0.16285000  1.0
  Li+  Li37  1  0.08660000  0.00010000  0.16285000  1.0
  Li+  Li38  1  0.58185313  0.50081157  0.66416332  1.0
  Li+  Li39  1  0.58660000  0.00010000  0.66285000  1.0
  Li+  Li40  1  0.58660000  0.50010000  0.16285000  1.0
  Li+  Li41  1  0.58882278  0.00236380  0.16366973  1.0
  Li+  Li42  1  0.08660000  0.74990000  0.66285000  1.0
  Li+  Li43  1  0.08660000  0.24990000  0.66285000  1.0
  Li+  Li44  1  0.58660000  0.74990000  0.66285000  1.0
  Li+  Li45  1  0.58660000  0.24990000  0.66285000  1.0
  Li+  Li46  1  0.41354164  0.99918690  0.33970077  1.0
  Li+  Li47  1  0.41340000  0.49990000  0.33715000  1.0
  Li+  Li48  1  0.40881539  0.99997810  0.83725466  1.0
  Li+  Li49  1  0.41340000  0.49990000  0.83715000  1.0
  Li+  Li50  1  0.91340000  0.99990000  0.33715000  1.0
  Li+  Li51  1  0.91340000  0.49990000  0.33715000  1.0
  Li+  Li52  1  0.90700000  0.62500000  0.57100000  1.0
  Li+  Li53  1  0.90700000  0.12500000  0.57100000  1.0
  Li+  Li54  1  0.09353700  0.87752155  0.43055842  1.0
  Li+  Li55  1  0.09300000  0.37500000  0.42900000  1.0
  Li+  Li56  1  0.09300000  0.87500000  0.92900000  1.0
  Li+  Li57  1  0.09300000  0.37500000  0.92900000  1.0
  Si4+  Si58  1  0.16515000  0.62500000  0.41330000  1.0
  Si4+  Si59  1  0.16515000  0.12500000  0.41330000  1.0
  Si4+  Si60  1  0.16498221  0.62536113  0.91429567  1.0
  Si4+  Si61  1  0.16515000  0.12500000  0.91330000  1.0
  Si4+  Si62  1  0.66266440  0.62276593  0.41199549  1.0
  Si4+  Si63  1  0.66515000  0.12500000  0.41330000  1.0
  Si4+  Si64  1  0.33485000  0.87500000  0.08670000  1.0
  Si4+  Si65  1  0.33485000  0.37500000  0.08670000  1.0
  Si4+  Si66  1  0.83669378  0.87219211  0.58773233  1.0
  Si4+  Si67  1  0.83485000  0.37500000  0.58670000  1.0
  Si4+  Si68  1  0.83485000  0.87500000  0.08670000  1.0
  Si4+  Si69  1  0.82973215  0.37284102  0.08859022  1.0
  P5+  P70  1  0.66515000  0.62500000  0.91330000  1.0
  P5+  P71  1  0.66753877  0.12631274  0.91197836  1.0
  P5+  P72  1  0.33485000  0.87500000  0.58670000  1.0
  P5+  P73  1  0.33485000  0.37500000  0.58670000  1.0
  O2-  O74  1  0.11180000  0.73322500  0.34290000  1.0
  O2-  O75  1  0.11441535  0.23419886  0.34252250  1.0
  O2-  O76  1  0.11471569  0.73386255  0.84477806  1.0
  O2-  O77  1  0.10843998  0.22903751  0.84247311  1.0
  O2-  O78  1  0.61180000  0.73322500  0.34290000  1.0
  O2-  O79  1  0.61180000  0.23322500  0.34290000  1.0
  O2-  O80  1  0.60908033  0.73408159  0.84185617  1.0
  O2-  O81  1  0.60812522  0.23205286  0.83748937  1.0
  O2-  O82  1  0.38820000  0.98322500  0.65710000  1.0
  O2-  O83  1  0.38820000  0.48322500  0.65710000  1.0
  O2-  O84  1  0.38820000  0.98322500  0.15710000  1.0
  O2-  O85  1  0.38820000  0.48322500  0.15710000  1.0
  O2-  O86  1  0.88820000  0.98322500  0.65710000  1.0
  O2-  O87  1  0.88820000  0.48322500  0.65710000  1.0
  O2-  O88  1  0.88820000  0.98322500  0.15710000  1.0
  O2-  O89  1  0.88820000  0.48322500  0.15710000  1.0
  O2-  O90  1  0.38820000  0.76677500  0.65710000  1.0
  O2-  O91  1  0.38820000  0.26677500  0.65710000  1.0
  O2-  O92  1  0.38820000  0.76677500  0.15710000  1.0
  O2-  O93  1  0.38785813  0.26735131  0.15714966  1.0
  O2-  O94  1  0.88820000  0.76677500  0.65710000  1.0
  O2-  O95  1  0.88820000  0.26677500  0.65710000  1.0
  O2-  O96  1  0.88820000  0.76677500  0.15710000  1.0
  O2-  O97  1  0.88230077  0.26661770  0.15855745  1.0
  O2-  O98  1  0.10854839  0.51676144  0.33798668  1.0
  O2-  O99  1  0.11180000  0.01677500  0.34290000  1.0
  O2-  O100  1  0.11180000  0.51677500  0.84290000  1.0
  O2-  O101  1  0.11180000  0.01677500  0.84290000  1.0
  O2-  O102  1  0.61134942  0.51737251  0.34338693  1.0
  O2-  O103  1  0.61180000  0.01677500  0.34290000  1.0
  O2-  O104  1  0.61180000  0.51677500  0.84290000  1.0
  O2-  O105  1  0.61180000  0.01677500  0.84290000  1.0
  O2-  O106  1  0.32390000  0.62500000  0.40790000  1.0
  O2-  O107  1  0.33019699  0.12327090  0.40665475  1.0
  O2-  O108  1  0.32105790  0.62664493  0.90562550  1.0
  O2-  O109  1  0.32390000  0.12500000  0.90790000  1.0
  O2-  O110  1  0.82390000  0.62500000  0.40790000  1.0
  O2-  O111  1  0.82390000  0.12500000  0.40790000  1.0
  O2-  O112  1  0.82390000  0.62500000  0.90790000  1.0
  O2-  O113  1  0.82390000  0.12500000  0.90790000  1.0
  O2-  O114  1  0.17610000  0.87500000  0.59210000  1.0
  O2-  O115  1  0.17610000  0.37500000  0.59210000  1.0
  O2-  O116  1  0.17610000  0.87500000  0.09210000  1.0
  O2-  O117  1  0.17610000  0.37500000  0.09210000  1.0
  O2-  O118  1  0.68005189  0.87012524  0.59019172  1.0
  O2-  O119  1  0.67610625  0.37240014  0.59465190  1.0
  O2-  O120  1  0.67610000  0.87500000  0.09210000  1.0
  O2-  O121  1  0.67578738  0.37618874  0.08808562  1.0
  O2-  O122  1  0.11545000  0.62500000  0.55640000  1.0
  O2-  O123  1  0.11545000  0.12500000  0.55640000  1.0
  O2-  O124  1  0.11545000  0.62500000  0.05640000  1.0
  O2-  O125  1  0.11545000  0.12500000  0.05640000  1.0
  O2-  O126  1  0.61545000  0.62500000  0.55640000  1.0
  O2-  O127  1  0.61545000  0.12500000  0.55640000  1.0
  O2-  O128  1  0.61403653  0.62370104  0.05581819  1.0
  O2-  O129  1  0.61545000  0.12500000  0.05640000  1.0
  O2-  O130  1  0.38573636  0.87273554  0.44377134  1.0
  O2-  O131  1  0.38398425  0.37334507  0.44054201  1.0
  O2-  O132  1  0.38455000  0.87500000  0.94360000  1.0
  O2-  O133  1  0.38455000  0.37500000  0.94360000  1.0
  O2-  O134  1  0.88455000  0.87500000  0.44360000  1.0
  O2-  O135  1  0.88455000  0.37500000  0.44360000  1.0
  O2-  O136  1  0.88455000  0.87500000  0.94360000  1.0
  O2-  O137  1  0.88017672  0.37383834  0.94403103  1.0
