# generated using pymatgen
data_Li29Si6(PO16)2
_symmetry_space_group_name_H-M   'P 1'
_cell_length_a   10.62307726
_cell_length_b   10.23930585
_cell_length_c   12.25872362
_cell_angle_alpha   90.00000000
_cell_angle_beta   90.00000000
_cell_angle_gamma   90.36920000
_symmetry_Int_Tables_number   1
_chemical_formula_structural   Li29Si6(PO16)2
_chemical_formula_sum   'Li58 Si12 P4 O64'
_cell_volume   1333.38969068
_cell_formula_units_Z   2
loop_
 _symmetry_equiv_pos_site_id
 _symmetry_equiv_pos_as_xyz
  1  'x, y, z'
loop_
 _atom_type_symbol
 _atom_type_oxidation_number
  Li+  1.0
  Si4+  4.0
  P5+  5.0
  O2-  -2.0
loop_
 _atom_site_type_symbol
 _atom_site_label
 _atom_site_symmetry_multiplicity
 _atom_site_fract_x
 _atom_site_fract_y
 _atom_site_fract_z
 _atom_site_occupancy
  Li+  Li0  1  0.22300000  0.69616667  0.27100000  1.0
  Li+  Li1  1  0.22300000  0.69616667  0.77100000  1.0
  Li+  Li2  1  0.22300000  0.19616667  0.47900000  1.0
  Li+  Li3  1  0.22300000  0.19616667  0.97900000  1.0
  Li+  Li4  1  0.22300000  0.69616667  0.47900000  1.0
  Li+  Li5  1  0.22300000  0.69616667  0.97900000  1.0
  Li+  Li6  1  0.48450000  0.18066667  0.37500000  1.0
  Li+  Li7  1  0.48450000  0.18066667  0.87500000  1.0
  Li+  Li8  1  0.51550000  0.15266667  0.12500000  1.0
  Li+  Li9  1  0.51550000  0.15266667  0.62500000  1.0
  Li+  Li10  1  0.07550000  0.85816667  0.23400000  1.0
  Li+  Li11  1  0.07550000  0.85816667  0.73400000  1.0
  Li+  Li12  1  0.92450000  0.47516667  0.26600000  1.0
  Li+  Li13  1  0.92450000  0.47516667  0.76600000  1.0
  Li+  Li14  1  0.42450000  0.97516667  0.26600000  1.0
  Li+  Li15  1  0.42450000  0.97516667  0.76600000  1.0
  Li+  Li16  1  0.57550000  0.35816667  0.01600000  1.0
  Li+  Li17  1  0.57550000  0.35816667  0.51600000  1.0
  Li+  Li18  1  0.07550000  0.85816667  0.01600000  1.0
  Li+  Li19  1  0.07550000  0.85816667  0.51600000  1.0
  Li+  Li20  1  0.85000000  0.35566667  0.37500000  1.0
  Li+  Li21  1  0.85000000  0.35566667  0.87500000  1.0
  Li+  Li22  1  0.35000000  0.35566667  0.37500000  1.0
  Li+  Li23  1  0.35000000  0.35566667  0.87500000  1.0
  Li+  Li24  1  0.65000000  0.47766667  0.12500000  1.0
  Li+  Li25  1  0.65000000  0.47766667  0.62500000  1.0
  Li+  Li26  1  0.65000000  0.97766667  0.12500000  1.0
  Li+  Li27  1  0.65000000  0.97766667  0.62500000  1.0
  Li+  Li28  1  0.15000000  0.97766667  0.12500000  1.0
  Li+  Li29  1  0.15000000  0.97766667  0.62500000  1.0
  Li+  Li30  1  0.58715000  0.25326667  0.24990000  1.0
  Li+  Li31  1  0.58715000  0.25326667  0.74990000  1.0
  Li+  Li32  1  0.08715000  0.25326667  0.24990000  1.0
  Li+  Li33  1  0.08715000  0.25326667  0.74990000  1.0
  Li+  Li34  1  0.58715000  0.75326667  0.24990000  1.0
  Li+  Li35  1  0.58715000  0.75326667  0.74990000  1.0
  Li+  Li36  1  0.41285000  0.58006667  0.49990000  1.0
  Li+  Li37  1  0.41285000  0.58006667  0.99990000  1.0
  Li+  Li38  1  0.91285000  0.08006667  0.49990000  1.0
  Li+  Li39  1  0.91285000  0.08006667  0.99990000  1.0
  Li+  Li40  1  0.41285000  0.08006667  0.49990000  1.0
  Li+  Li41  1  0.41285000  0.08006667  0.99990000  1.0
  Li+  Li42  1  0.91285000  0.58006667  0.25010000  1.0
  Li+  Li43  1  0.91285000  0.58006667  0.75010000  1.0
  Li+  Li44  1  0.91285000  0.08006667  0.25010000  1.0
  Li+  Li45  1  0.91285000  0.08006667  0.75010000  1.0
  Li+  Li46  1  0.58715000  0.25326667  0.00010000  1.0
  Li+  Li47  1  0.58715000  0.25326667  0.50010000  1.0
  Li+  Li48  1  0.08715000  0.25326667  0.00010000  1.0
  Li+  Li49  1  0.08715000  0.25326667  0.50010000  1.0
  Li+  Li50  1  0.58715000  0.75326667  0.00010000  1.0
  Li+  Li51  1  0.58715000  0.75326667  0.50010000  1.0
  Li+  Li52  1  0.82100000  0.75966667  0.37500000  1.0
  Li+  Li53  1  0.82100000  0.75966667  0.87500000  1.0
  Li+  Li54  1  0.67900000  0.57366667  0.12500000  1.0
  Li+  Li55  1  0.67900000  0.57366667  0.62500000  1.0
  Li+  Li56  1  0.17900000  0.57366667  0.12500000  1.0
  Li+  Li57  1  0.17900000  0.57366667  0.62500000  1.0
  Si4+  Si58  1  0.66330000  0.50151667  0.37500000  1.0
  Si4+  Si59  1  0.66330000  0.50151667  0.87500000  1.0
  Si4+  Si60  1  0.16330000  0.50151667  0.37500000  1.0
  Si4+  Si61  1  0.16330000  0.50151667  0.87500000  1.0
  Si4+  Si62  1  0.66330000  0.00151667  0.37500000  1.0
  Si4+  Si63  1  0.66330000  0.00151667  0.87500000  1.0
  Si4+  Si64  1  0.33670000  0.33181667  0.12500000  1.0
  Si4+  Si65  1  0.33670000  0.33181667  0.62500000  1.0
  Si4+  Si66  1  0.83670000  0.83181667  0.12500000  1.0
  Si4+  Si67  1  0.83670000  0.83181667  0.62500000  1.0
  Si4+  Si68  1  0.33670000  0.83181667  0.12500000  1.0
  Si4+  Si69  1  0.33670000  0.83181667  0.62500000  1.0
  P5+  P70  1  0.16330000  0.00151667  0.37500000  1.0
  P5+  P71  1  0.16330000  0.00151667  0.87500000  1.0
  P5+  P72  1  0.83670000  0.33181667  0.12500000  1.0
  P5+  P73  1  0.83670000  0.33181667  0.62500000  1.0
  O2-  O74  1  0.59290000  0.55486667  0.26677500  1.0
  O2-  O75  1  0.59290000  0.55486667  0.76677500  1.0
  O2-  O76  1  0.09290000  0.55486667  0.26677500  1.0
  O2-  O77  1  0.09290000  0.55486667  0.76677500  1.0
  O2-  O78  1  0.59290000  0.05486667  0.26677500  1.0
  O2-  O79  1  0.59290000  0.05486667  0.76677500  1.0
  O2-  O80  1  0.09290000  0.05486667  0.26677500  1.0
  O2-  O81  1  0.09290000  0.05486667  0.76677500  1.0
  O2-  O82  1  0.90710000  0.27846667  0.01677500  1.0
  O2-  O83  1  0.90710000  0.27846667  0.51677500  1.0
  O2-  O84  1  0.40710000  0.27846667  0.01677500  1.0
  O2-  O85  1  0.40710000  0.27846667  0.51677500  1.0
  O2-  O86  1  0.90710000  0.77846667  0.01677500  1.0
  O2-  O87  1  0.90710000  0.77846667  0.51677500  1.0
  O2-  O88  1  0.40710000  0.77846667  0.01677500  1.0
  O2-  O89  1  0.40710000  0.77846667  0.51677500  1.0
  O2-  O90  1  0.90710000  0.27846667  0.23322500  1.0
  O2-  O91  1  0.90710000  0.27846667  0.73322500  1.0
  O2-  O92  1  0.40710000  0.27846667  0.23322500  1.0
  O2-  O93  1  0.40710000  0.27846667  0.73322500  1.0
  O2-  O94  1  0.90710000  0.77846667  0.23322500  1.0
  O2-  O95  1  0.90710000  0.77846667  0.73322500  1.0
  O2-  O96  1  0.40710000  0.77846667  0.23322500  1.0
  O2-  O97  1  0.40710000  0.77846667  0.73322500  1.0
  O2-  O98  1  0.59290000  0.55486667  0.48322500  1.0
  O2-  O99  1  0.59290000  0.55486667  0.98322500  1.0
  O2-  O100  1  0.09290000  0.55486667  0.48322500  1.0
  O2-  O101  1  0.09290000  0.55486667  0.98322500  1.0
  O2-  O102  1  0.59290000  0.05486667  0.48322500  1.0
  O2-  O103  1  0.59290000  0.05486667  0.98322500  1.0
  O2-  O104  1  0.09290000  0.05486667  0.48322500  1.0
  O2-  O105  1  0.09290000  0.05486667  0.98322500  1.0
  O2-  O106  1  0.65790000  0.34276667  0.37500000  1.0
  O2-  O107  1  0.65790000  0.34276667  0.87500000  1.0
  O2-  O108  1  0.15790000  0.34276667  0.37500000  1.0
  O2-  O109  1  0.15790000  0.34276667  0.87500000  1.0
  O2-  O110  1  0.65790000  0.84276667  0.37500000  1.0
  O2-  O111  1  0.65790000  0.84276667  0.87500000  1.0
  O2-  O112  1  0.15790000  0.84276667  0.37500000  1.0
  O2-  O113  1  0.15790000  0.84276667  0.87500000  1.0
  O2-  O114  1  0.84210000  0.49056667  0.12500000  1.0
  O2-  O115  1  0.84210000  0.49056667  0.62500000  1.0
  O2-  O116  1  0.34210000  0.49056667  0.12500000  1.0
  O2-  O117  1  0.34210000  0.49056667  0.62500000  1.0
  O2-  O118  1  0.84210000  0.99056667  0.12500000  1.0
  O2-  O119  1  0.84210000  0.99056667  0.62500000  1.0
  O2-  O120  1  0.34210000  0.99056667  0.12500000  1.0
  O2-  O121  1  0.34210000  0.99056667  0.62500000  1.0
  O2-  O122  1  0.80640000  0.55121667  0.37500000  1.0
  O2-  O123  1  0.80640000  0.55121667  0.87500000  1.0
  O2-  O124  1  0.30640000  0.55121667  0.37500000  1.0
  O2-  O125  1  0.30640000  0.55121667  0.87500000  1.0
  O2-  O126  1  0.80640000  0.05121667  0.37500000  1.0
  O2-  O127  1  0.80640000  0.05121667  0.87500000  1.0
  O2-  O128  1  0.30640000  0.05121667  0.37500000  1.0
  O2-  O129  1  0.30640000  0.05121667  0.87500000  1.0
  O2-  O130  1  0.69360000  0.28211667  0.12500000  1.0
  O2-  O131  1  0.69360000  0.28211667  0.62500000  1.0
  O2-  O132  1  0.19360000  0.28211667  0.12500000  1.0
  O2-  O133  1  0.19360000  0.28211667  0.62500000  1.0
  O2-  O134  1  0.69360000  0.78211667  0.12500000  1.0
  O2-  O135  1  0.69360000  0.78211667  0.62500000  1.0
  O2-  O136  1  0.19360000  0.78211667  0.12500000  1.0
  O2-  O137  1  0.19360000  0.78211667  0.62500000  1.0
