# generated using pymatgen
data_Li29Si6(PO16)2
_symmetry_space_group_name_H-M   'P 1'
_cell_length_a   10.21072000
_cell_length_b   10.59342000
_cell_length_c   12.22450000
_cell_angle_alpha   90.00000000
_cell_angle_beta   90.00000000
_cell_angle_gamma   90.36920000
_symmetry_Int_Tables_number   1
_chemical_formula_structural   Li29Si6(PO16)2
_chemical_formula_sum   'Li58 Si12 P4 O64'
_cell_volume   1322.25326079
_cell_formula_units_Z   2
loop_
 _symmetry_equiv_pos_site_id
 _symmetry_equiv_pos_as_xyz
  1  'x, y, z'
loop_
 _atom_type_symbol
 _atom_type_oxidation_number
  Li+  1.0
  Si4+  4.0
  P5+  5.0
  O2-  -2.0
loop_
 _atom_site_type_symbol
 _atom_site_label
 _atom_site_symmetry_multiplicity
 _atom_site_fract_x
 _atom_site_fract_y
 _atom_site_fract_z
 _atom_site_occupancy
  Li+  Li0  1  0.97050000  0.77700000  0.27100000  1.0
  Li+  Li0  1  0.97050000  0.77700000  0.77100000  1.0
  Li+  Li1  1  0.47050000  0.77700000  0.47900000  1.0
  Li+  Li1  1  0.47050000  0.77700000  0.97900000  1.0
  Li+  Li2  1  0.97050000  0.77700000  0.47900000  1.0
  Li+  Li2  1  0.97050000  0.77700000  0.97900000  1.0
  Li+  Li3  1  0.48600000  0.51550000  0.37500000  1.0
  Li+  Li3  1  0.48600000  0.51550000  0.87500000  1.0
  Li+  Li4  1  0.51400000  0.48450000  0.12500000  1.0
  Li+  Li4  1  0.51400000  0.48450000  0.62500000  1.0
  Li+  Li5  1  0.80850000  0.92450000  0.23400000  1.0
  Li+  Li5  1  0.80850000  0.92450000  0.73400000  1.0
  Li+  Li6  1  0.19150000  0.07550000  0.26600000  1.0
  Li+  Li6  1  0.19150000  0.07550000  0.76600000  1.0
  Li+  Li7  1  0.69150000  0.57550000  0.26600000  1.0
  Li+  Li7  1  0.69150000  0.57550000  0.76600000  1.0
  Li+  Li8  1  0.30850000  0.42450000  0.01600000  1.0
  Li+  Li8  1  0.30850000  0.42450000  0.51600000  1.0
  Li+  Li9  1  0.80850000  0.92450000  0.01600000  1.0
  Li+  Li9  1  0.80850000  0.92450000  0.51600000  1.0
  Li+  Li10  1  0.31100000  0.15000000  0.37500000  1.0
  Li+  Li10  1  0.31100000  0.15000000  0.87500000  1.0
  Li+  Li11  1  0.31100000  0.65000000  0.37500000  1.0
  Li+  Li11  1  0.31100000  0.65000000  0.87500000  1.0
  Li+  Li12  1  0.18900000  0.35000000  0.12500000  1.0
  Li+  Li12  1  0.18900000  0.35000000  0.62500000  1.0
  Li+  Li13  1  0.68900000  0.35000000  0.12500000  1.0
  Li+  Li13  1  0.68900000  0.35000000  0.62500000  1.0
  Li+  Li14  1  0.68900000  0.85000000  0.12500000  1.0
  Li+  Li14  1  0.68900000  0.85000000  0.62500000  1.0
  Li+  Li15  1  0.41340000  0.41285000  0.24990000  1.0
  Li+  Li15  1  0.41340000  0.41285000  0.74990000  1.0
  Li+  Li16  1  0.41340000  0.91285000  0.24990000  1.0
  Li+  Li16  1  0.41340000  0.91285000  0.74990000  1.0
  Li+  Li17  1  0.91340000  0.41285000  0.24990000  1.0
  Li+  Li17  1  0.91340000  0.41285000  0.74990000  1.0
  Li+  Li18  1  0.08660000  0.58715000  0.49990000  1.0
  Li+  Li18  1  0.08660000  0.58715000  0.99990000  1.0
  Li+  Li19  1  0.58660000  0.08715000  0.49990000  1.0
  Li+  Li19  1  0.58660000  0.08715000  0.99990000  1.0
  Li+  Li20  1  0.58660000  0.58715000  0.49990000  1.0
  Li+  Li20  1  0.58660000  0.58715000  0.99990000  1.0
  Li+  Li21  1  0.08660000  0.08715000  0.25010000  1.0
  Li+  Li21  1  0.08660000  0.08715000  0.75010000  1.0
  Li+  Li22  1  0.58660000  0.08715000  0.25010000  1.0
  Li+  Li22  1  0.58660000  0.08715000  0.75010000  1.0
  Li+  Li23  1  0.41340000  0.41285000  0.00010000  1.0
  Li+  Li23  1  0.41340000  0.41285000  0.50010000  1.0
  Li+  Li24  1  0.41340000  0.91285000  0.00010000  1.0
  Li+  Li24  1  0.41340000  0.91285000  0.50010000  1.0
  Li+  Li25  1  0.91340000  0.41285000  0.00010000  1.0
  Li+  Li25  1  0.91340000  0.41285000  0.50010000  1.0
  Li+  Li26  1  0.90700000  0.17900000  0.37500000  1.0
  Li+  Li26  1  0.90700000  0.17900000  0.87500000  1.0
  Li+  Li27  1  0.09300000  0.32100000  0.12500000  1.0
  Li+  Li27  1  0.09300000  0.32100000  0.62500000  1.0
  Li+  Li28  1  0.09300000  0.82100000  0.12500000  1.0
  Li+  Li28  1  0.09300000  0.82100000  0.62500000  1.0
  Si4+  Si29  1  0.16515000  0.33670000  0.37500000  1.0
  Si4+  Si29  1  0.16515000  0.33670000  0.87500000  1.0
  Si4+  Si30  1  0.16515000  0.83670000  0.37500000  1.0
  Si4+  Si30  1  0.16515000  0.83670000  0.87500000  1.0
  Si4+  Si31  1  0.66515000  0.33670000  0.37500000  1.0
  Si4+  Si31  1  0.66515000  0.33670000  0.87500000  1.0
  Si4+  Si32  1  0.33485000  0.66330000  0.12500000  1.0
  Si4+  Si32  1  0.33485000  0.66330000  0.62500000  1.0
  Si4+  Si33  1  0.83485000  0.16330000  0.12500000  1.0
  Si4+  Si33  1  0.83485000  0.16330000  0.62500000  1.0
  Si4+  Si34  1  0.83485000  0.66330000  0.12500000  1.0
  Si4+  Si34  1  0.83485000  0.66330000  0.62500000  1.0
  P5+  P35  1  0.66515000  0.83670000  0.37500000  1.0
  P5+  P35  1  0.66515000  0.83670000  0.87500000  1.0
  P5+  P36  1  0.33485000  0.16330000  0.12500000  1.0
  P5+  P36  1  0.33485000  0.16330000  0.62500000  1.0
  O2-  O1  1  0.11180000  0.40710000  0.26677500  1.0
  O2-  O1  1  0.11180000  0.40710000  0.76677500  1.0
  O2-  O1  1  0.11180000  0.90710000  0.26677500  1.0
  O2-  O1  1  0.11180000  0.90710000  0.76677500  1.0
  O2-  O1  1  0.61180000  0.40710000  0.26677500  1.0
  O2-  O1  1  0.61180000  0.40710000  0.76677500  1.0
  O2-  O1  1  0.61180000  0.90710000  0.26677500  1.0
  O2-  O1  1  0.61180000  0.90710000  0.76677500  1.0
  O2-  O1  1  0.38820000  0.09290000  0.01677500  1.0
  O2-  O1  1  0.38820000  0.09290000  0.51677500  1.0
  O2-  O1  1  0.38820000  0.59290000  0.01677500  1.0
  O2-  O1  1  0.38820000  0.59290000  0.51677500  1.0
  O2-  O1  1  0.88820000  0.09290000  0.01677500  1.0
  O2-  O1  1  0.88820000  0.09290000  0.51677500  1.0
  O2-  O1  1  0.88820000  0.59290000  0.01677500  1.0
  O2-  O1  1  0.88820000  0.59290000  0.51677500  1.0
  O2-  O1  1  0.38820000  0.09290000  0.23322500  1.0
  O2-  O1  1  0.38820000  0.09290000  0.73322500  1.0
  O2-  O1  1  0.38820000  0.59290000  0.23322500  1.0
  O2-  O1  1  0.38820000  0.59290000  0.73322500  1.0
  O2-  O1  1  0.88820000  0.09290000  0.23322500  1.0
  O2-  O1  1  0.88820000  0.09290000  0.73322500  1.0
  O2-  O1  1  0.88820000  0.59290000  0.23322500  1.0
  O2-  O1  1  0.88820000  0.59290000  0.73322500  1.0
  O2-  O1  1  0.11180000  0.40710000  0.48322500  1.0
  O2-  O1  1  0.11180000  0.40710000  0.98322500  1.0
  O2-  O1  1  0.11180000  0.90710000  0.48322500  1.0
  O2-  O1  1  0.11180000  0.90710000  0.98322500  1.0
  O2-  O1  1  0.61180000  0.40710000  0.48322500  1.0
  O2-  O1  1  0.61180000  0.40710000  0.98322500  1.0
  O2-  O1  1  0.61180000  0.90710000  0.48322500  1.0
  O2-  O1  1  0.61180000  0.90710000  0.98322500  1.0
  O2-  O2  1  0.32390000  0.34210000  0.37500000  1.0
  O2-  O2  1  0.32390000  0.34210000  0.87500000  1.0
  O2-  O2  1  0.32390000  0.84210000  0.37500000  1.0
  O2-  O2  1  0.32390000  0.84210000  0.87500000  1.0
  O2-  O2  1  0.82390000  0.34210000  0.37500000  1.0
  O2-  O2  1  0.82390000  0.34210000  0.87500000  1.0
  O2-  O2  1  0.82390000  0.84210000  0.37500000  1.0
  O2-  O2  1  0.82390000  0.84210000  0.87500000  1.0
  O2-  O2  1  0.17610000  0.15790000  0.12500000  1.0
  O2-  O2  1  0.17610000  0.15790000  0.62500000  1.0
  O2-  O2  1  0.17610000  0.65790000  0.12500000  1.0
  O2-  O2  1  0.17610000  0.65790000  0.62500000  1.0
  O2-  O2  1  0.67610000  0.15790000  0.12500000  1.0
  O2-  O2  1  0.67610000  0.15790000  0.62500000  1.0
  O2-  O2  1  0.67610000  0.65790000  0.12500000  1.0
  O2-  O2  1  0.67610000  0.65790000  0.62500000  1.0
  O2-  O3  1  0.11545000  0.19360000  0.37500000  1.0
  O2-  O3  1  0.11545000  0.19360000  0.87500000  1.0
  O2-  O3  1  0.11545000  0.69360000  0.37500000  1.0
  O2-  O3  1  0.11545000  0.69360000  0.87500000  1.0
  O2-  O3  1  0.61545000  0.19360000  0.37500000  1.0
  O2-  O3  1  0.61545000  0.19360000  0.87500000  1.0
  O2-  O3  1  0.61545000  0.69360000  0.37500000  1.0
  O2-  O3  1  0.61545000  0.69360000  0.87500000  1.0
  O2-  O3  1  0.38455000  0.30640000  0.12500000  1.0
  O2-  O3  1  0.38455000  0.30640000  0.62500000  1.0
  O2-  O3  1  0.38455000  0.80640000  0.12500000  1.0
  O2-  O3  1  0.38455000  0.80640000  0.62500000  1.0
  O2-  O3  1  0.88455000  0.30640000  0.12500000  1.0
  O2-  O3  1  0.88455000  0.30640000  0.62500000  1.0
  O2-  O3  1  0.88455000  0.80640000  0.12500000  1.0
  O2-  O3  1  0.88455000  0.80640000  0.62500000  1.0
