# generated using pymatgen
data_Li4Mg(PS3)3
_symmetry_space_group_name_H-M   'P 1'
_cell_length_a   12.16620000
_cell_length_b   13.17260000
_cell_length_c   18.24930000
_cell_angle_alpha   90.00000000
_cell_angle_beta   60.00000000
_cell_angle_gamma   90.00000000
_symmetry_Int_Tables_number   1
_chemical_formula_structural   Li4Mg(PS3)3
_chemical_formula_sum   'Li32 Mg8 P24 S72'
_cell_volume   2532.81399994
_cell_formula_units_Z   8
loop_
 _symmetry_equiv_pos_site_id
 _symmetry_equiv_pos_as_xyz
  1  'x, y, z'
loop_
 _atom_type_symbol
 _atom_type_oxidation_number
  Li+  1.0
  Mg2+  2.0
  P5+  5.0
  S2-  -2.0
loop_
 _atom_site_type_symbol
 _atom_site_label
 _atom_site_symmetry_multiplicity
 _atom_site_fract_x
 _atom_site_fract_y
 _atom_site_fract_z
 _atom_site_occupancy
  Li+  Li0  1  0.83333333  0.00000000  0.63888889  1.0
  Li+  Li1  1  0.83333333  0.50000000  0.63888889  1.0
  Li+  Li2  1  0.83333333  0.00000000  0.30555556  1.0
  Li+  Li3  1  0.83381303  0.49955735  0.30194019  1.0
  Li+  Li4  1  0.83333333  0.00000000  0.97222222  1.0
  Li+  Li5  1  0.83333333  0.50000000  0.97222222  1.0
  Li+  Li6  1  0.16666667  0.00000000  0.52777778  1.0
  Li+  Li7  1  0.16666667  0.50000000  0.52777778  1.0
  Li+  Li8  1  0.16666667  0.00000000  0.86111111  1.0
  Li+  Li9  1  0.16666667  0.50000000  0.86111111  1.0
  Li+  Li10  1  0.66666667  0.00000000  0.52777778  1.0
  Li+  Li11  1  0.66519277  0.50271167  0.52994863  1.0
  Li+  Li12  1  0.66666667  0.00000000  0.19444444  1.0
  Li+  Li13  1  0.66666667  0.50000000  0.19444444  1.0
  Li+  Li14  1  0.66685614  0.00369867  0.85837203  1.0
  Li+  Li15  1  0.66898928  0.49703333  0.86272076  1.0
  Li+  Li16  1  0.33333333  0.75000000  0.30555556  1.0
  Li+  Li17  1  0.33333333  0.25000000  0.30555556  1.0
  Li+  Li18  1  0.83333333  0.75000000  0.63888889  1.0
  Li+  Li19  1  0.83333333  0.25000000  0.63888889  1.0
  Li+  Li20  1  0.83333333  0.75000000  0.30555556  1.0
  Li+  Li21  1  0.83333333  0.25000000  0.30555556  1.0
  Li+  Li22  1  0.82917941  0.74828562  0.96943335  1.0
  Li+  Li23  1  0.83333333  0.25000000  0.97222222  1.0
  Li+  Li24  1  0.16666667  0.75000000  0.86111111  1.0
  Li+  Li25  1  0.16666667  0.25000000  0.86111111  1.0
  Li+  Li26  1  0.66666667  0.75000000  0.52777778  1.0
  Li+  Li27  1  0.66666667  0.25000000  0.52777778  1.0
  Li+  Li28  1  0.66666667  0.75000000  0.19444444  1.0
  Li+  Li29  1  0.66715715  0.24776069  0.19273482  1.0
  Li+  Li30  1  0.66254138  0.75214102  0.86132509  1.0
  Li+  Li31  1  0.66450581  0.25250480  0.85976095  1.0
  Mg2+  Mg32  1  0.33333333  0.75000000  0.63888889  1.0
  Mg2+  Mg33  1  0.33333333  0.25000000  0.63888889  1.0
  Mg2+  Mg34  1  0.33333333  0.75000000  0.97222222  1.0
  Mg2+  Mg35  1  0.33333333  0.25000000  0.97222222  1.0
  Mg2+  Mg36  1  0.16666667  0.75000000  0.52777778  1.0
  Mg2+  Mg37  1  0.16666667  0.25000000  0.52777778  1.0
  Mg2+  Mg38  1  0.16666667  0.75000000  0.19444444  1.0
  Mg2+  Mg39  1  0.16637615  0.24719782  0.19504648  1.0
  P5+  P40  1  0.50000000  0.58585000  0.08333333  1.0
  P5+  P41  1  0.49759509  0.08794112  0.08333544  1.0
  P5+  P42  1  0.00000000  0.83585000  0.75000000  1.0
  P5+  P43  1  0.00000000  0.33585000  0.75000000  1.0
  P5+  P44  1  0.00000000  0.83585000  0.41666667  1.0
  P5+  P45  1  0.99655328  0.33418953  0.41535012  1.0
  P5+  P46  1  0.00000000  0.83585000  0.08333333  1.0
  P5+  P47  1  0.00000000  0.33585000  0.08333333  1.0
  P5+  P48  1  0.49728598  0.83590188  0.75009713  1.0
  P5+  P49  1  0.50120791  0.33590287  0.74995591  1.0
  P5+  P50  1  0.50000000  0.83585000  0.41666667  1.0
  P5+  P51  1  0.50000000  0.33585000  0.41666667  1.0
  P5+  P52  1  0.50000000  0.83585000  0.08333333  1.0
  P5+  P53  1  0.50000000  0.33585000  0.08333333  1.0
  P5+  P54  1  0.00000000  0.66415000  0.75000000  1.0
  P5+  P55  1  0.00000000  0.16415000  0.75000000  1.0
  P5+  P56  1  0.00000000  0.66415000  0.41666667  1.0
  P5+  P57  1  0.00000000  0.16415000  0.41666667  1.0
  P5+  P58  1  0.00000000  0.66415000  0.08333333  1.0
  P5+  P59  1  0.00152002  0.16323201  0.08578583  1.0
  P5+  P60  1  0.50000000  0.66415000  0.75000000  1.0
  P5+  P61  1  0.50000000  0.16415000  0.75000000  1.0
  P5+  P62  1  0.50000000  0.66415000  0.41666667  1.0
  P5+  P63  1  0.50000000  0.16415000  0.41666667  1.0
  S2-  S64  1  0.16155000  0.87175000  0.64230000  1.0
  S2-  S65  1  0.16045476  0.37075642  0.64343782  1.0
  S2-  S66  1  0.16155000  0.87175000  0.30896667  1.0
  S2-  S67  1  0.16155000  0.37175000  0.30896667  1.0
  S2-  S68  1  0.16372060  0.87213581  0.97726497  1.0
  S2-  S69  1  0.16155000  0.37175000  0.97563333  1.0
  S2-  S70  1  0.66155000  0.87175000  0.64230000  1.0
  S2-  S71  1  0.66198513  0.37273900  0.64023503  1.0
  S2-  S72  1  0.66155000  0.87175000  0.30896667  1.0
  S2-  S73  1  0.66155000  0.37175000  0.30896667  1.0
  S2-  S74  1  0.66427304  0.87503402  0.97375275  1.0
  S2-  S75  1  0.66290558  0.37395283  0.97112007  1.0
  S2-  S76  1  0.33929793  0.87357733  0.41736503  1.0
  S2-  S77  1  0.33845000  0.37175000  0.41666667  1.0
  S2-  S78  1  0.33845000  0.87175000  0.08333333  1.0
  S2-  S79  1  0.34307557  0.37005062  0.08241858  1.0
  S2-  S80  1  0.33845000  0.87175000  0.75000000  1.0
  S2-  S81  1  0.33743393  0.37050870  0.74807232  1.0
  S2-  S82  1  0.83851927  0.86903478  0.41305009  1.0
  S2-  S83  1  0.83845000  0.37175000  0.41666667  1.0
  S2-  S84  1  0.83845000  0.87175000  0.08333333  1.0
  S2-  S85  1  0.83845000  0.37175000  0.08333333  1.0
  S2-  S86  1  0.84161256  0.87578676  0.75068405  1.0
  S2-  S87  1  0.83845000  0.37175000  0.75000000  1.0
  S2-  S88  1  0.00000000  0.87175000  0.52436667  1.0
  S2-  S89  1  0.00000000  0.37175000  0.52436667  1.0
  S2-  S90  1  0.00276258  0.87138004  0.18901020  1.0
  S2-  S91  1  0.00073139  0.37204789  0.18592211  1.0
  S2-  S92  1  0.00150477  0.87275150  0.85512367  1.0
  S2-  S93  1  0.00000000  0.37175000  0.85770000  1.0
  S2-  S94  1  0.50000000  0.87175000  0.52436667  1.0
  S2-  S95  1  0.50000000  0.37175000  0.52436667  1.0
  S2-  S96  1  0.50000000  0.87175000  0.19103333  1.0
  S2-  S97  1  0.50000000  0.37175000  0.19103333  1.0
  S2-  S98  1  0.50000000  0.87175000  0.85770000  1.0
  S2-  S99  1  0.50000000  0.37175000  0.85770000  1.0
  S2-  S100  1  0.33845000  0.62825000  0.52436667  1.0
  S2-  S101  1  0.33845000  0.12825000  0.52436667  1.0
  S2-  S102  1  0.33611368  0.62869642  0.19742476  1.0
  S2-  S103  1  0.33541656  0.12648878  0.18891528  1.0
  S2-  S104  1  0.33845000  0.62825000  0.85770000  1.0
  S2-  S105  1  0.33845000  0.12825000  0.85770000  1.0
  S2-  S106  1  0.83845000  0.62825000  0.52436667  1.0
  S2-  S107  1  0.83845000  0.12825000  0.52436667  1.0
  S2-  S108  1  0.83964801  0.62602469  0.19214475  1.0
  S2-  S109  1  0.83845000  0.12825000  0.19103333  1.0
  S2-  S110  1  0.83845000  0.62825000  0.85770000  1.0
  S2-  S111  1  0.83999920  0.12772386  0.85666694  1.0
  S2-  S112  1  0.16155000  0.62825000  0.41666667  1.0
  S2-  S113  1  0.16155000  0.12825000  0.41666667  1.0
  S2-  S114  1  0.16155000  0.62825000  0.08333333  1.0
  S2-  S115  1  0.16155000  0.12825000  0.08333333  1.0
  S2-  S116  1  0.16155000  0.62825000  0.75000000  1.0
  S2-  S117  1  0.16155000  0.12825000  0.75000000  1.0
  S2-  S118  1  0.65783733  0.63018673  0.41923699  1.0
  S2-  S119  1  0.66155000  0.12825000  0.41666667  1.0
  S2-  S120  1  0.66155000  0.62825000  0.08333333  1.0
  S2-  S121  1  0.66155000  0.12825000  0.08333333  1.0
  S2-  S122  1  0.66155000  0.62825000  0.75000000  1.0
  S2-  S123  1  0.66155000  0.12825000  0.75000000  1.0
  S2-  S124  1  0.00000000  0.62825000  0.64230000  1.0
  S2-  S125  1  0.00000000  0.12825000  0.64230000  1.0
  S2-  S126  1  0.00000000  0.62825000  0.30896667  1.0
  S2-  S127  1  0.00391261  0.12592361  0.30692581  1.0
  S2-  S128  1  0.00000000  0.62825000  0.97563333  1.0
  S2-  S129  1  0.00000000  0.12825000  0.97563333  1.0
  S2-  S130  1  0.50000000  0.62825000  0.64230000  1.0
  S2-  S131  1  0.50067485  0.12739271  0.63933841  1.0
  S2-  S132  1  0.50000000  0.62825000  0.30896667  1.0
  S2-  S133  1  0.50000000  0.12825000  0.30896667  1.0
  S2-  S134  1  0.50000000  0.62825000  0.97563333  1.0
  S2-  S135  1  0.50000000  0.12825000  0.97563333  1.0
