# generated using pymatgen
data_Li4Mg(PS3)3
_symmetry_space_group_name_H-M   'P 1'
_cell_length_a   18.37863806
_cell_length_b   12.25242537
_cell_length_c   13.26595802
_cell_angle_alpha   90.00000000
_cell_angle_beta   90.00000000
_cell_angle_gamma   120.00000000
_symmetry_Int_Tables_number   1
_chemical_formula_structural   Li4Mg(PS3)3
_chemical_formula_sum   'Li32 Mg8 P24 S72'
_cell_volume   2587.04892102
_cell_formula_units_Z   8
loop_
 _symmetry_equiv_pos_site_id
 _symmetry_equiv_pos_as_xyz
  1  'x, y, z'
loop_
 _atom_type_symbol
 _atom_type_oxidation_number
  Li+  1.0
  Mg2+  2.0
  P5+  5.0
  S2-  -2.0
loop_
 _atom_site_type_symbol
 _atom_site_label
 _atom_site_symmetry_multiplicity
 _atom_site_fract_x
 _atom_site_fract_y
 _atom_site_fract_z
 _atom_site_occupancy
  Li+  Li0  1  0.88888889  0.83333334  0.00000000  1.0
  Li+  Li1  1  0.88888889  0.83333334  0.50000000  1.0
  Li+  Li2  1  0.55555556  0.83333334  0.00000000  1.0
  Li+  Li3  1  0.55555556  0.83333334  0.50000000  1.0
  Li+  Li4  1  0.22222222  0.83333334  0.00000000  1.0
  Li+  Li5  1  0.22222222  0.83333334  0.50000000  1.0
  Li+  Li6  1  0.77777778  0.50000000  0.00000000  1.0
  Li+  Li7  1  0.77777778  0.50000000  0.50000000  1.0
  Li+  Li8  1  0.11111111  0.50000000  0.00000000  1.0
  Li+  Li9  1  0.11111111  0.50000000  0.50000000  1.0
  Li+  Li10  1  0.77777778  0.00000000  0.00000000  1.0
  Li+  Li11  1  0.77777778  0.00000000  0.50000000  1.0
  Li+  Li12  1  0.44444444  0.00000000  0.00000000  1.0
  Li+  Li13  1  0.44444444  0.00000000  0.50000000  1.0
  Li+  Li14  1  0.11111111  0.00000000  0.00000000  1.0
  Li+  Li15  1  0.11111111  0.00000000  0.50000000  1.0
  Li+  Li16  1  0.55555556  0.33333333  0.25000000  1.0
  Li+  Li17  1  0.55555556  0.33333333  0.75000000  1.0
  Li+  Li18  1  0.88888889  0.83333334  0.25000000  1.0
  Li+  Li19  1  0.88888889  0.83333334  0.75000000  1.0
  Li+  Li20  1  0.55555556  0.83333334  0.25000000  1.0
  Li+  Li21  1  0.55555556  0.83333334  0.75000000  1.0
  Li+  Li22  1  0.22222222  0.83333334  0.25000000  1.0
  Li+  Li23  1  0.22222222  0.83333334  0.75000000  1.0
  Li+  Li24  1  0.11111111  0.50000000  0.25000000  1.0
  Li+  Li25  1  0.11111111  0.50000000  0.75000000  1.0
  Li+  Li26  1  0.77777778  0.00000000  0.25000000  1.0
  Li+  Li27  1  0.77777778  0.00000000  0.75000000  1.0
  Li+  Li28  1  0.44444444  0.00000000  0.25000000  1.0
  Li+  Li29  1  0.44444444  0.00000000  0.75000000  1.0
  Li+  Li30  1  0.11111111  0.00000000  0.25000000  1.0
  Li+  Li31  1  0.11111111  0.00000000  0.75000000  1.0
  Mg2+  Mg32  1  0.88888889  0.33333333  0.25000000  1.0
  Mg2+  Mg33  1  0.88888889  0.33333333  0.75000000  1.0
  Mg2+  Mg34  1  0.22222222  0.33333333  0.25000000  1.0
  Mg2+  Mg35  1  0.22222222  0.33333333  0.75000000  1.0
  Mg2+  Mg36  1  0.77777778  0.50000000  0.25000000  1.0
  Mg2+  Mg37  1  0.77777778  0.50000000  0.75000000  1.0
  Mg2+  Mg38  1  0.44444444  0.50000000  0.25000000  1.0
  Mg2+  Mg39  1  0.44444444  0.50000000  0.75000000  1.0
  P5+  P40  1  0.33333333  0.16666667  0.41415000  1.0
  P5+  P41  1  0.33333333  0.16666667  0.91415000  1.0
  P5+  P42  1  0.00000000  0.66666667  0.16415000  1.0
  P5+  P43  1  0.00000000  0.66666667  0.66415000  1.0
  P5+  P44  1  0.66666667  0.66666667  0.16415000  1.0
  P5+  P45  1  0.66666667  0.66666667  0.66415000  1.0
  P5+  P46  1  0.33333333  0.66666667  0.16415000  1.0
  P5+  P47  1  0.33333333  0.66666667  0.66415000  1.0
  P5+  P48  1  0.00000000  0.16666667  0.16415000  1.0
  P5+  P49  1  0.00000000  0.16666667  0.66415000  1.0
  P5+  P50  1  0.66666667  0.16666667  0.16415000  1.0
  P5+  P51  1  0.66666667  0.16666667  0.66415000  1.0
  P5+  P52  1  0.33333333  0.16666667  0.16415000  1.0
  P5+  P53  1  0.33333333  0.16666667  0.66415000  1.0
  P5+  P54  1  0.00000000  0.66666667  0.33585000  1.0
  P5+  P55  1  0.00000000  0.66666667  0.83585000  1.0
  P5+  P56  1  0.66666667  0.66666667  0.33585000  1.0
  P5+  P57  1  0.66666667  0.66666667  0.83585000  1.0
  P5+  P58  1  0.33333333  0.66666667  0.33585000  1.0
  P5+  P59  1  0.33333333  0.66666667  0.83585000  1.0
  P5+  P60  1  0.00000000  0.16666667  0.33585000  1.0
  P5+  P61  1  0.00000000  0.16666667  0.83585000  1.0
  P5+  P62  1  0.66666667  0.16666667  0.33585000  1.0
  P5+  P63  1  0.66666667  0.16666667  0.83585000  1.0
  S2-  S64  1  0.89230000  0.50511667  0.12825000  1.0
  S2-  S65  1  0.89230000  0.50511667  0.62825000  1.0
  S2-  S66  1  0.55896667  0.50511667  0.12825000  1.0
  S2-  S67  1  0.55896667  0.50511667  0.62825000  1.0
  S2-  S68  1  0.22563333  0.50511667  0.12825000  1.0
  S2-  S69  1  0.22563333  0.50511667  0.62825000  1.0
  S2-  S70  1  0.89230000  0.00511667  0.12825000  1.0
  S2-  S71  1  0.89230000  0.00511667  0.62825000  1.0
  S2-  S72  1  0.55896667  0.00511667  0.12825000  1.0
  S2-  S73  1  0.55896667  0.00511667  0.62825000  1.0
  S2-  S74  1  0.22563333  0.00511667  0.12825000  1.0
  S2-  S75  1  0.22563333  0.00511667  0.62825000  1.0
  S2-  S76  1  0.66666667  0.32821667  0.12825000  1.0
  S2-  S77  1  0.66666667  0.32821667  0.62825000  1.0
  S2-  S78  1  0.33333333  0.32821667  0.12825000  1.0
  S2-  S79  1  0.33333333  0.32821667  0.62825000  1.0
  S2-  S80  1  0.00000000  0.32821667  0.12825000  1.0
  S2-  S81  1  0.00000000  0.32821667  0.62825000  1.0
  S2-  S82  1  0.66666667  0.82821667  0.12825000  1.0
  S2-  S83  1  0.66666667  0.82821667  0.62825000  1.0
  S2-  S84  1  0.33333333  0.82821667  0.12825000  1.0
  S2-  S85  1  0.33333333  0.82821667  0.62825000  1.0
  S2-  S86  1  0.00000000  0.82821667  0.12825000  1.0
  S2-  S87  1  0.00000000  0.82821667  0.62825000  1.0
  S2-  S88  1  0.77436667  0.66666667  0.12825000  1.0
  S2-  S89  1  0.77436667  0.66666667  0.62825000  1.0
  S2-  S90  1  0.44103333  0.66666667  0.12825000  1.0
  S2-  S91  1  0.44103333  0.66666667  0.62825000  1.0
  S2-  S92  1  0.10770000  0.66666667  0.12825000  1.0
  S2-  S93  1  0.10770000  0.66666667  0.62825000  1.0
  S2-  S94  1  0.77436667  0.16666667  0.12825000  1.0
  S2-  S95  1  0.77436667  0.16666667  0.62825000  1.0
  S2-  S96  1  0.44103333  0.16666667  0.12825000  1.0
  S2-  S97  1  0.44103333  0.16666667  0.62825000  1.0
  S2-  S98  1  0.10770000  0.16666667  0.12825000  1.0
  S2-  S99  1  0.10770000  0.16666667  0.62825000  1.0
  S2-  S100  1  0.77436667  0.32821667  0.37175000  1.0
  S2-  S101  1  0.77436667  0.32821667  0.87175000  1.0
  S2-  S102  1  0.44103333  0.32821667  0.37175000  1.0
  S2-  S103  1  0.44103333  0.32821667  0.87175000  1.0
  S2-  S104  1  0.10770000  0.32821667  0.37175000  1.0
  S2-  S105  1  0.10770000  0.32821667  0.87175000  1.0
  S2-  S106  1  0.77436667  0.82821667  0.37175000  1.0
  S2-  S107  1  0.77436667  0.82821667  0.87175000  1.0
  S2-  S108  1  0.44103333  0.82821667  0.37175000  1.0
  S2-  S109  1  0.44103333  0.82821667  0.87175000  1.0
  S2-  S110  1  0.10770000  0.82821667  0.37175000  1.0
  S2-  S111  1  0.10770000  0.82821667  0.87175000  1.0
  S2-  S112  1  0.66666667  0.50511667  0.37175000  1.0
  S2-  S113  1  0.66666667  0.50511667  0.87175000  1.0
  S2-  S114  1  0.33333333  0.50511667  0.37175000  1.0
  S2-  S115  1  0.33333333  0.50511667  0.87175000  1.0
  S2-  S116  1  0.00000000  0.50511667  0.37175000  1.0
  S2-  S117  1  0.00000000  0.50511667  0.87175000  1.0
  S2-  S118  1  0.66666667  0.00511667  0.37175000  1.0
  S2-  S119  1  0.66666667  0.00511667  0.87175000  1.0
  S2-  S120  1  0.33333333  0.00511667  0.37175000  1.0
  S2-  S121  1  0.33333333  0.00511667  0.87175000  1.0
  S2-  S122  1  0.00000000  0.00511667  0.37175000  1.0
  S2-  S123  1  0.00000000  0.00511667  0.87175000  1.0
  S2-  S124  1  0.89230000  0.66666667  0.37175000  1.0
  S2-  S125  1  0.89230000  0.66666667  0.87175000  1.0
  S2-  S126  1  0.55896667  0.66666667  0.37175000  1.0
  S2-  S127  1  0.55896667  0.66666667  0.87175000  1.0
  S2-  S128  1  0.22563333  0.66666667  0.37175000  1.0
  S2-  S129  1  0.22563333  0.66666667  0.87175000  1.0
  S2-  S130  1  0.89230000  0.16666667  0.37175000  1.0
  S2-  S131  1  0.89230000  0.16666667  0.87175000  1.0
  S2-  S132  1  0.55896667  0.16666667  0.37175000  1.0
  S2-  S133  1  0.55896667  0.16666667  0.87175000  1.0
  S2-  S134  1  0.22563333  0.16666667  0.37175000  1.0
  S2-  S135  1  0.22563333  0.16666667  0.87175000  1.0
