# generated using pymatgen
data_Li4Mg(PS3)3
_symmetry_space_group_name_H-M   'P 1'
_cell_length_a   12.16620000
_cell_length_b   18.24930000
_cell_length_c   13.17260000
_cell_angle_alpha   90.00000000
_cell_angle_beta   90.00000000
_cell_angle_gamma   120.00000000
_symmetry_Int_Tables_number   1
_chemical_formula_structural   Li4Mg(PS3)3
_chemical_formula_sum   'Li32 Mg8 P24 S72'
_cell_volume   2532.81399994
_cell_formula_units_Z   8
loop_
 _symmetry_equiv_pos_site_id
 _symmetry_equiv_pos_as_xyz
  1  'x, y, z'
loop_
 _atom_type_symbol
 _atom_type_oxidation_number
  Li+  1.0
  Mg2+  2.0
  P5+  5.0
  S2-  -2.0
loop_
 _atom_site_type_symbol
 _atom_site_label
 _atom_site_symmetry_multiplicity
 _atom_site_fract_x
 _atom_site_fract_y
 _atom_site_fract_z
 _atom_site_occupancy
  Li+  Li0  1  0.83333333  0.11111111  0.00000000  1.0
  Li+  Li0  1  0.83333333  0.11111111  0.50000000  1.0
  Li+  Li1  1  0.83333333  0.44444444  0.00000000  1.0
  Li+  Li1  1  0.83333333  0.44444444  0.50000000  1.0
  Li+  Li2  1  0.83333333  0.77777778  0.00000000  1.0
  Li+  Li2  1  0.83333333  0.77777778  0.50000000  1.0
  Li+  Li3  1  0.16666667  0.22222222  0.00000000  1.0
  Li+  Li3  1  0.16666667  0.22222222  0.50000000  1.0
  Li+  Li4  1  0.16666667  0.88888889  0.00000000  1.0
  Li+  Li4  1  0.16666667  0.88888889  0.50000000  1.0
  Li+  Li5  1  0.66666667  0.22222222  0.00000000  1.0
  Li+  Li5  1  0.66666667  0.22222222  0.50000000  1.0
  Li+  Li6  1  0.66666667  0.55555556  0.00000000  1.0
  Li+  Li6  1  0.66666667  0.55555556  0.50000000  1.0
  Li+  Li7  1  0.66666667  0.88888889  0.00000000  1.0
  Li+  Li7  1  0.66666667  0.88888889  0.50000000  1.0
  Li+  Li8  1  0.33333333  0.44444444  0.25000000  1.0
  Li+  Li8  1  0.33333333  0.44444444  0.75000000  1.0
  Li+  Li9  1  0.83333333  0.11111111  0.25000000  1.0
  Li+  Li9  1  0.83333333  0.11111111  0.75000000  1.0
  Li+  Li10  1  0.83333333  0.44444444  0.25000000  1.0
  Li+  Li10  1  0.83333333  0.44444444  0.75000000  1.0
  Li+  Li11  1  0.83333333  0.77777778  0.25000000  1.0
  Li+  Li11  1  0.83333333  0.77777778  0.75000000  1.0
  Li+  Li12  1  0.16666667  0.88888889  0.25000000  1.0
  Li+  Li12  1  0.16666667  0.88888889  0.75000000  1.0
  Li+  Li13  1  0.66666667  0.22222222  0.25000000  1.0
  Li+  Li13  1  0.66666667  0.22222222  0.75000000  1.0
  Li+  Li14  1  0.66666667  0.55555556  0.25000000  1.0
  Li+  Li14  1  0.66666667  0.55555556  0.75000000  1.0
  Li+  Li15  1  0.66666667  0.88888889  0.25000000  1.0
  Li+  Li15  1  0.66666667  0.88888889  0.75000000  1.0
  Mg2+  Mg16  1  0.33333333  0.11111111  0.25000000  1.0
  Mg2+  Mg16  1  0.33333333  0.11111111  0.75000000  1.0
  Mg2+  Mg17  1  0.33333333  0.77777778  0.25000000  1.0
  Mg2+  Mg17  1  0.33333333  0.77777778  0.75000000  1.0
  Mg2+  Mg18  1  0.16666667  0.22222222  0.25000000  1.0
  Mg2+  Mg18  1  0.16666667  0.22222222  0.75000000  1.0
  Mg2+  Mg19  1  0.16666667  0.55555556  0.25000000  1.0
  Mg2+  Mg19  1  0.16666667  0.55555556  0.75000000  1.0
  P5+  P20  1  0.50000000  0.66666667  0.41415000  1.0
  P5+  P20  1  0.50000000  0.66666667  0.91415000  1.0
  P5+  P21  1  0.00000000  0.00000000  0.16415000  1.0
  P5+  P21  1  0.00000000  0.00000000  0.66415000  1.0
  P5+  P22  1  0.00000000  0.33333333  0.16415000  1.0
  P5+  P22  1  0.00000000  0.33333333  0.66415000  1.0
  P5+  P23  1  0.00000000  0.66666667  0.16415000  1.0
  P5+  P23  1  0.00000000  0.66666667  0.66415000  1.0
  P5+  P24  1  0.50000000  0.00000000  0.16415000  1.0
  P5+  P24  1  0.50000000  0.00000000  0.66415000  1.0
  P5+  P25  1  0.50000000  0.33333333  0.16415000  1.0
  P5+  P25  1  0.50000000  0.33333333  0.66415000  1.0
  P5+  P26  1  0.50000000  0.66666667  0.16415000  1.0
  P5+  P26  1  0.50000000  0.66666667  0.66415000  1.0
  P5+  P27  1  0.00000000  0.00000000  0.33585000  1.0
  P5+  P27  1  0.00000000  0.00000000  0.83585000  1.0
  P5+  P28  1  0.00000000  0.33333333  0.33585000  1.0
  P5+  P28  1  0.00000000  0.33333333  0.83585000  1.0
  P5+  P29  1  0.00000000  0.66666667  0.33585000  1.0
  P5+  P29  1  0.00000000  0.66666667  0.83585000  1.0
  P5+  P30  1  0.50000000  0.00000000  0.33585000  1.0
  P5+  P30  1  0.50000000  0.00000000  0.83585000  1.0
  P5+  P31  1  0.50000000  0.33333333  0.33585000  1.0
  P5+  P31  1  0.50000000  0.33333333  0.83585000  1.0
  S2-  S1  1  0.16155000  0.10770000  0.12825000  1.0
  S2-  S1  1  0.16155000  0.10770000  0.62825000  1.0
  S2-  S1  1  0.16155000  0.44103333  0.12825000  1.0
  S2-  S1  1  0.16155000  0.44103333  0.62825000  1.0
  S2-  S1  1  0.16155000  0.77436667  0.12825000  1.0
  S2-  S1  1  0.16155000  0.77436667  0.62825000  1.0
  S2-  S1  1  0.66155000  0.10770000  0.12825000  1.0
  S2-  S1  1  0.66155000  0.10770000  0.62825000  1.0
  S2-  S1  1  0.66155000  0.44103333  0.12825000  1.0
  S2-  S1  1  0.66155000  0.44103333  0.62825000  1.0
  S2-  S1  1  0.66155000  0.77436667  0.12825000  1.0
  S2-  S1  1  0.66155000  0.77436667  0.62825000  1.0
  S2-  S1  1  0.33845000  0.33333333  0.12825000  1.0
  S2-  S1  1  0.33845000  0.33333333  0.62825000  1.0
  S2-  S1  1  0.33845000  0.66666667  0.12825000  1.0
  S2-  S1  1  0.33845000  0.66666667  0.62825000  1.0
  S2-  S1  1  0.33845000  0.00000000  0.12825000  1.0
  S2-  S1  1  0.33845000  0.00000000  0.62825000  1.0
  S2-  S1  1  0.83845000  0.33333333  0.12825000  1.0
  S2-  S1  1  0.83845000  0.33333333  0.62825000  1.0
  S2-  S1  1  0.83845000  0.66666667  0.12825000  1.0
  S2-  S1  1  0.83845000  0.66666667  0.62825000  1.0
  S2-  S1  1  0.83845000  0.00000000  0.12825000  1.0
  S2-  S1  1  0.83845000  0.00000000  0.62825000  1.0
  S2-  S1  1  0.00000000  0.22563333  0.12825000  1.0
  S2-  S1  1  0.00000000  0.22563333  0.62825000  1.0
  S2-  S1  1  0.00000000  0.55896667  0.12825000  1.0
  S2-  S1  1  0.00000000  0.55896667  0.62825000  1.0
  S2-  S1  1  1.00000000  0.89230000  0.12825000  1.0
  S2-  S1  1  1.00000000  0.89230000  0.62825000  1.0
  S2-  S1  1  0.50000000  0.22563333  0.12825000  1.0
  S2-  S1  1  0.50000000  0.22563333  0.62825000  1.0
  S2-  S1  1  0.50000000  0.55896667  0.12825000  1.0
  S2-  S1  1  0.50000000  0.55896667  0.62825000  1.0
  S2-  S1  1  0.50000000  0.89230000  0.12825000  1.0
  S2-  S1  1  0.50000000  0.89230000  0.62825000  1.0
  S2-  S1  1  0.33845000  0.22563333  0.37175000  1.0
  S2-  S1  1  0.33845000  0.22563333  0.87175000  1.0
  S2-  S1  1  0.33845000  0.55896667  0.37175000  1.0
  S2-  S1  1  0.33845000  0.55896667  0.87175000  1.0
  S2-  S1  1  0.33845000  0.89230000  0.37175000  1.0
  S2-  S1  1  0.33845000  0.89230000  0.87175000  1.0
  S2-  S1  1  0.83845000  0.22563333  0.37175000  1.0
  S2-  S1  1  0.83845000  0.22563333  0.87175000  1.0
  S2-  S1  1  0.83845000  0.55896667  0.37175000  1.0
  S2-  S1  1  0.83845000  0.55896667  0.87175000  1.0
  S2-  S1  1  0.83845000  0.89230000  0.37175000  1.0
  S2-  S1  1  0.83845000  0.89230000  0.87175000  1.0
  S2-  S1  1  0.16155000  0.33333333  0.37175000  1.0
  S2-  S1  1  0.16155000  0.33333333  0.87175000  1.0
  S2-  S1  1  0.16155000  0.66666667  0.37175000  1.0
  S2-  S1  1  0.16155000  0.66666667  0.87175000  1.0
  S2-  S1  1  0.16155000  0.00000000  0.37175000  1.0
  S2-  S1  1  0.16155000  0.00000000  0.87175000  1.0
  S2-  S1  1  0.66155000  0.33333333  0.37175000  1.0
  S2-  S1  1  0.66155000  0.33333333  0.87175000  1.0
  S2-  S1  1  0.66155000  0.66666667  0.37175000  1.0
  S2-  S1  1  0.66155000  0.66666667  0.87175000  1.0
  S2-  S1  1  0.66155000  0.00000000  0.37175000  1.0
  S2-  S1  1  0.66155000  0.00000000  0.87175000  1.0
  S2-  S1  1  0.00000000  0.10770000  0.37175000  1.0
  S2-  S1  1  0.00000000  0.10770000  0.87175000  1.0
  S2-  S1  1  0.00000000  0.44103333  0.37175000  1.0
  S2-  S1  1  0.00000000  0.44103333  0.87175000  1.0
  S2-  S1  1  0.00000000  0.77436667  0.37175000  1.0
  S2-  S1  1  0.00000000  0.77436667  0.87175000  1.0
  S2-  S1  1  0.50000000  0.10770000  0.37175000  1.0
  S2-  S1  1  0.50000000  0.10770000  0.87175000  1.0
  S2-  S1  1  0.50000000  0.44103333  0.37175000  1.0
  S2-  S1  1  0.50000000  0.44103333  0.87175000  1.0
  S2-  S1  1  0.50000000  0.77436667  0.37175000  1.0
  S2-  S1  1  0.50000000  0.77436667  0.87175000  1.0
