# generated using pymatgen
data_Li64SnP6(Se5I)10
_symmetry_space_group_name_H-M   'P 1'
_cell_length_a   37.91789403
_cell_length_b   7.58357881
_cell_length_c   15.16715761
_cell_angle_alpha   60.00000000
_cell_angle_beta   120.00000000
_cell_angle_gamma   120.00000000
_symmetry_Int_Tables_number   1
_chemical_formula_structural   Li64SnP6(Se5I)10
_chemical_formula_sum   'Li64 Sn1 P6 Se50 I10'
_cell_volume   3083.95203525
_cell_formula_units_Z   1
loop_
 _symmetry_equiv_pos_site_id
 _symmetry_equiv_pos_as_xyz
  1  'x, y, z'
loop_
 _atom_type_symbol
 _atom_type_oxidation_number
  Li+  1.0
  Sn4+  4.0
  P5+  5.0
  Se2-  -2.0
  I-  -1.0
loop_
 _atom_site_type_symbol
 _atom_site_label
 _atom_site_symmetry_multiplicity
 _atom_site_fract_x
 _atom_site_fract_y
 _atom_site_fract_z
 _atom_site_occupancy
  Li+  Li0  1  0.09516120  0.52171533  0.24437614  1.0
  Li+  Li1  1  0.29600000  0.52000000  0.24000000  1.0
  Li+  Li2  1  0.49670542  0.51684115  0.24034881  1.0
  Li+  Li3  1  0.69600000  0.52000000  0.24000000  1.0
  Li+  Li4  1  0.00370989  0.52065434  0.50962343  1.0
  Li+  Li5  1  0.20400000  0.52000000  0.01000000  1.0
  Li+  Li6  1  0.40400000  0.52000000  0.51000000  1.0
  Li+  Li7  1  0.40180277  0.52179058  0.00448284  1.0
  Li+  Li8  1  0.60400000  0.52000000  0.51000000  1.0
  Li+  Li9  1  0.29600000  0.98000000  0.74000000  1.0
  Li+  Li10  1  0.29600000  0.98000000  0.24000000  1.0
  Li+  Li11  1  0.49053224  0.97829042  0.74455089  1.0
  Li+  Li12  1  0.00400000  0.52000000  0.74000000  1.0
  Li+  Li13  1  0.00400000  0.98000000  0.51000000  1.0
  Li+  Li14  1  0.00400000  0.98000000  0.01000000  1.0
  Li+  Li15  1  0.60400000  0.98000000  0.51000000  1.0
  Li+  Li16  1  0.80400000  0.98000000  0.01000000  1.0
  Li+  Li17  1  0.07900000  0.44500000  0.23750000  1.0
  Li+  Li18  1  0.27900000  0.44500000  0.73750000  1.0
  Li+  Li19  1  0.47900000  0.44500000  0.73750000  1.0
  Li+  Li20  1  0.67900000  0.44500000  0.23750000  1.0
  Li+  Li21  1  0.87900000  0.44500000  0.23750000  1.0
  Li+  Li22  1  0.00500000  0.60500000  0.47250000  1.0
  Li+  Li23  1  0.00500000  0.60500000  0.97250000  1.0
  Li+  Li24  1  0.20500000  0.60500000  0.47250000  1.0
  Li+  Li25  1  0.40757830  0.60210453  0.97103952  1.0
  Li+  Li26  1  0.60616719  0.60459216  0.97409036  1.0
  Li+  Li27  1  0.80500000  0.60500000  0.97250000  1.0
  Li+  Li28  1  0.11246887  0.97019355  0.73644098  1.0
  Li+  Li29  1  0.50849562  0.97229542  0.73968693  1.0
  Li+  Li30  1  0.50982372  0.97503039  0.23801539  1.0
  Li+  Li31  1  0.71320928  0.97739988  0.23350751  1.0
  Li+  Li32  1  0.11100000  0.60500000  0.73750000  1.0
  Li+  Li33  1  0.51100000  0.60500000  0.23750000  1.0
  Li+  Li34  1  0.70928499  0.60659778  0.73881054  1.0
  Li+  Li35  1  0.91100000  0.60500000  0.73750000  1.0
  Li+  Li36  1  0.00366945  0.44779342  0.73742564  1.0
  Li+  Li37  1  0.00500000  0.44500000  0.23750000  1.0
  Li+  Li38  1  0.80500000  0.44500000  0.73750000  1.0
  Li+  Li39  1  0.00500000  0.60500000  0.23750000  1.0
  Li+  Li40  1  0.20500000  0.60500000  0.73750000  1.0
  Li+  Li41  1  0.40500000  0.60500000  0.23750000  1.0
  Li+  Li42  1  0.60500000  0.60500000  0.23750000  1.0
  Li+  Li43  1  0.80500000  0.60500000  0.73750000  1.0
  Li+  Li44  1  0.20500000  0.44500000  0.05250000  1.0
  Li+  Li45  1  0.60500000  0.44500000  0.55250000  1.0
  Li+  Li46  1  0.80500000  0.44500000  0.55250000  1.0
  Li+  Li47  1  0.00500000  0.97500000  0.55250000  1.0
  Li+  Li48  1  0.40500000  0.97500000  0.55250000  1.0
  Li+  Li49  1  0.80500000  0.97500000  0.55250000  1.0
  Li+  Li50  1  0.07900000  0.97500000  0.73750000  1.0
  Li+  Li51  1  0.60500000  0.97500000  0.47250000  1.0
  Li+  Li52  1  0.80661708  0.97537848  0.47232928  1.0
  Li+  Li53  1  0.11100000  0.97500000  0.05250000  1.0
  Li+  Li54  1  0.31100000  0.97500000  0.05250000  1.0
  Li+  Li55  1  0.51100000  0.97500000  0.55250000  1.0
  Li+  Li56  1  0.51091205  0.97454118  0.05362912  1.0
  Li+  Li57  1  0.71100000  0.97500000  0.55250000  1.0
  Li+  Li58  1  0.07900000  0.97500000  0.47250000  1.0
  Li+  Li59  1  0.07900000  0.97500000  0.97250000  1.0
  Li+  Li60  1  0.27900000  0.97500000  0.47250000  1.0
  Li+  Li61  1  0.27900000  0.97500000  0.97250000  1.0
  Li+  Li62  1  0.67900000  0.97500000  0.97250000  1.0
  Li+  Li63  1  0.87900000  0.97500000  0.97250000  1.0
  Sn4+  Sn64  1  0.90000000  0.50000000  0.50000000  1.0
  P5+  P65  1  0.10000000  0.50000000  0.50000000  1.0
  P5+  P66  1  0.30000000  0.50000000  0.00000000  1.0
  P5+  P67  1  0.50000000  0.50000000  0.50000000  1.0
  P5+  P68  1  0.49926593  0.49456049  0.99997177  1.0
  P5+  P69  1  0.70000000  0.50000000  0.00000000  1.0
  P5+  P70  1  0.90000000  0.50000000  0.00000000  1.0
  Se2-  Se71  1  0.12512000  0.37440000  0.68840000  1.0
  Se2-  Se72  1  0.12512000  0.37440000  0.18840000  1.0
  Se2-  Se73  1  0.32512000  0.37440000  0.68840000  1.0
  Se2-  Se74  1  0.32512000  0.37440000  0.18840000  1.0
  Se2-  Se75  1  0.52512000  0.37440000  0.68840000  1.0
  Se2-  Se76  1  0.52494711  0.37404316  0.19118739  1.0
  Se2-  Se77  1  0.72512000  0.37440000  0.68840000  1.0
  Se2-  Se78  1  0.72512000  0.37440000  0.18840000  1.0
  Se2-  Se79  1  0.92512000  0.37440000  0.68840000  1.0
  Se2-  Se80  1  0.92512000  0.37440000  0.18840000  1.0
  Se2-  Se81  1  0.12630053  0.36882260  0.43988136  1.0
  Se2-  Se82  1  0.12512000  0.37440000  0.93720000  1.0
  Se2-  Se83  1  0.32512000  0.37440000  0.43720000  1.0
  Se2-  Se84  1  0.32512000  0.37440000  0.93720000  1.0
  Se2-  Se85  1  0.52512000  0.37440000  0.43720000  1.0
  Se2-  Se86  1  0.52512000  0.37440000  0.93720000  1.0
  Se2-  Se87  1  0.72512000  0.37440000  0.43720000  1.0
  Se2-  Se88  1  0.72400452  0.37282472  0.93948476  1.0
  Se2-  Se89  1  0.92512000  0.37440000  0.43720000  1.0
  Se2-  Se90  1  0.92512000  0.37440000  0.93720000  1.0
  Se2-  Se91  1  0.12652862  0.87689557  0.43628865  1.0
  Se2-  Se92  1  0.12512000  0.87680000  0.93720000  1.0
  Se2-  Se93  1  0.32488055  0.87485971  0.43735649  1.0
  Se2-  Se94  1  0.32512000  0.87680000  0.93720000  1.0
  Se2-  Se95  1  0.52512000  0.87680000  0.43720000  1.0
  Se2-  Se96  1  0.52512000  0.87680000  0.93720000  1.0
  Se2-  Se97  1  0.72841381  0.87796484  0.43993205  1.0
  Se2-  Se98  1  0.72512000  0.87680000  0.93720000  1.0
  Se2-  Se99  1  0.92729074  0.88069656  0.43972725  1.0
  Se2-  Se100  1  0.92512000  0.87680000  0.93720000  1.0
  Se2-  Se101  1  0.02464000  0.37440000  0.43720000  1.0
  Se2-  Se102  1  0.02464000  0.37440000  0.93720000  1.0
  Se2-  Se103  1  0.22464000  0.37440000  0.43720000  1.0
  Se2-  Se104  1  0.22300027  0.37654379  0.93610740  1.0
  Se2-  Se105  1  0.42473308  0.38042204  0.43739747  1.0
  Se2-  Se106  1  0.42464000  0.37440000  0.93720000  1.0
  Se2-  Se107  1  0.62464000  0.37440000  0.43720000  1.0
  Se2-  Se108  1  0.62464000  0.37440000  0.93720000  1.0
  Se2-  Se109  1  0.82746271  0.37513885  0.43879385  1.0
  Se2-  Se110  1  0.82464000  0.37440000  0.93720000  1.0
  Se2-  Se111  1  0.05325108  0.75025220  0.62218818  1.0
  Se2-  Se112  1  0.05000000  0.75000000  0.12500000  1.0
  Se2-  Se113  1  0.25000000  0.75000000  0.62500000  1.0
  Se2-  Se114  1  0.25000000  0.75000000  0.12500000  1.0
  Se2-  Se115  1  0.45000000  0.75000000  0.62500000  1.0
  Se2-  Se116  1  0.44899185  0.74758909  0.12415423  1.0
  Se2-  Se117  1  0.65000000  0.75000000  0.62500000  1.0
  Se2-  Se118  1  0.65000000  0.75000000  0.12500000  1.0
  Se2-  Se119  1  0.85000000  0.75000000  0.62500000  1.0
  Se2-  Se120  1  0.85079643  0.75289172  0.12795282  1.0
  I-  I121  1  0.00040031  0.99662315  0.75258210  1.0
  I-  I122  1  0.00000000  0.00000000  0.25000000  1.0
  I-  I123  1  0.20000000  0.00000000  0.75000000  1.0
  I-  I124  1  0.20000000  0.00000000  0.25000000  1.0
  I-  I125  1  0.40000000  0.00000000  0.75000000  1.0
  I-  I126  1  0.40000000  0.00000000  0.25000000  1.0
  I-  I127  1  0.60271020  0.99980626  0.74793852  1.0
  I-  I128  1  0.60000000  0.00000000  0.25000000  1.0
  I-  I129  1  0.80045656  0.00030663  0.74876108  1.0
  I-  I130  1  0.80000000  0.00000000  0.25000000  1.0
