# generated using pymatgen
data_Li10Ge(PS6)2
_symmetry_space_group_name_H-M   'P 1'
_cell_length_a   26.13363000
_cell_length_b   12.60780000
_cell_length_c   8.71121000
_cell_angle_alpha   90.00000000
_cell_angle_beta   90.00000000
_cell_angle_gamma   90.00000000
_symmetry_Int_Tables_number   1
_chemical_formula_structural   Li10Ge(PS6)2
_chemical_formula_sum   'Li60 Ge6 P12 S72'
_cell_volume   2870.23550451
_cell_formula_units_Z   6
loop_
 _symmetry_equiv_pos_site_id
 _symmetry_equiv_pos_as_xyz
  1  'x, y, z'
loop_
 _atom_type_symbol
 _atom_type_oxidation_number
  Li+  1.0
  Ge4+  4.0
  P5+  5.0
  S2-  -2.0
loop_
 _atom_site_type_symbol
 _atom_site_label
 _atom_site_symmetry_multiplicity
 _atom_site_fract_x
 _atom_site_fract_y
 _atom_site_fract_z
 _atom_site_occupancy
  Li+  Li0  1  0.26109510  0.69312591  0.99891289  1.0
  Li+  Li1  1  0.59133333  0.69500000  0.00000000  1.0
  Li+  Li2  1  0.92542667  0.69235470  0.99900329  1.0
  Li+  Li3  1  0.25000000  0.19500000  0.97600000  1.0
  Li+  Li4  1  0.58333333  0.19500000  0.97600000  1.0
  Li+  Li5  1  0.91666667  0.19500000  0.97600000  1.0
  Li+  Li6  1  0.09133333  0.30500000  0.50000000  1.0
  Li+  Li7  1  0.41979071  0.29945181  0.49622988  1.0
  Li+  Li8  1  0.75800000  0.30500000  0.50000000  1.0
  Li+  Li9  1  0.08333333  0.80500000  0.47600000  1.0
  Li+  Li10  1  0.41654483  0.80235374  0.47961513  1.0
  Li+  Li11  1  0.75000000  0.80500000  0.47600000  1.0
  Li+  Li12  1  0.17100000  0.94690000  0.75200000  1.0
  Li+  Li13  1  0.50433333  0.94690000  0.75200000  1.0
  Li+  Li14  1  0.83766667  0.94690000  0.75200000  1.0
  Li+  Li15  1  0.33223251  0.94303609  0.75004685  1.0
  Li+  Li16  1  0.66074111  0.94931279  0.75195740  1.0
  Li+  Li17  1  0.99566667  0.94690000  0.75200000  1.0
  Li+  Li18  1  0.33266667  0.44690000  0.23700000  1.0
  Li+  Li19  1  0.66600000  0.44690000  0.23700000  1.0
  Li+  Li20  1  0.99933333  0.44690000  0.23700000  1.0
  Li+  Li21  1  0.33266667  0.44690000  0.76300000  1.0
  Li+  Li22  1  0.66600000  0.44690000  0.76300000  1.0
  Li+  Li23  1  0.99933333  0.44690000  0.76300000  1.0
  Li+  Li24  1  0.16233333  0.05310000  0.25200000  1.0
  Li+  Li25  1  0.49556706  0.05166052  0.25596734  1.0
  Li+  Li26  1  0.82411934  0.05524261  0.25604012  1.0
  Li+  Li27  1  0.00658021  0.05211751  0.24940778  1.0
  Li+  Li28  1  0.33766667  0.05310000  0.25200000  1.0
  Li+  Li29  1  0.67100000  0.05310000  0.25200000  1.0
  Li+  Li30  1  0.16600000  0.55310000  0.26300000  1.0
  Li+  Li31  1  0.49933333  0.55310000  0.26300000  1.0
  Li+  Li32  1  0.83284227  0.55528110  0.25963444  1.0
  Li+  Li33  1  0.16600000  0.55310000  0.73700000  1.0
  Li+  Li34  1  0.50376524  0.55204291  0.73423545  1.0
  Li+  Li35  1  0.83266667  0.55310000  0.73700000  1.0
  Li+  Li36  1  0.00133333  0.75000000  0.75400000  1.0
  Li+  Li37  1  0.33466667  0.75000000  0.75400000  1.0
  Li+  Li38  1  0.66800000  0.75000000  0.75400000  1.0
  Li+  Li39  1  0.16703450  0.74557837  0.24675654  1.0
  Li+  Li40  1  0.49737281  0.75536332  0.24589365  1.0
  Li+  Li41  1  0.83200000  0.75000000  0.24600000  1.0
  Li+  Li42  1  0.00133333  0.75000000  0.24600000  1.0
  Li+  Li43  1  0.33379934  0.74928745  0.24609737  1.0
  Li+  Li44  1  0.66800000  0.75000000  0.24600000  1.0
  Li+  Li45  1  0.16735854  0.24929767  0.24957945  1.0
  Li+  Li46  1  0.50133333  0.25000000  0.25400000  1.0
  Li+  Li47  1  0.83184562  0.24788706  0.25003753  1.0
  Li+  Li48  1  0.32695490  0.25080219  0.74796381  1.0
  Li+  Li49  1  0.66533333  0.25000000  0.74600000  1.0
  Li+  Li50  1  0.99866667  0.25000000  0.74600000  1.0
  Li+  Li51  1  0.16800000  0.25000000  0.74600000  1.0
  Li+  Li52  1  0.50133333  0.25000000  0.74600000  1.0
  Li+  Li53  1  0.83466667  0.25000000  0.74600000  1.0
  Li+  Li54  1  0.25000000  0.00100000  0.50000000  1.0
  Li+  Li55  1  0.58333333  0.00100000  0.50000000  1.0
  Li+  Li56  1  0.91666667  0.00100000  0.50000000  1.0
  Li+  Li57  1  0.08333333  0.50100000  0.00000000  1.0
  Li+  Li58  1  0.41666667  0.50100000  0.00000000  1.0
  Li+  Li59  1  0.75000000  0.50100000  0.00000000  1.0
  Ge4+  Ge60  1  0.25000000  0.94210000  0.00000000  1.0
  Ge4+  Ge61  1  0.58333333  0.94210000  0.00000000  1.0
  Ge4+  Ge62  1  0.91666667  0.94210000  0.00000000  1.0
  Ge4+  Ge63  1  0.08333333  0.05790000  0.50000000  1.0
  Ge4+  Ge64  1  0.41603080  0.06231814  0.49850385  1.0
  Ge4+  Ge65  1  0.75000000  0.05790000  0.50000000  1.0
  P5+  P66  1  0.25000000  0.44210000  0.00000000  1.0
  P5+  P67  1  0.58333333  0.44210000  0.00000000  1.0
  P5+  P68  1  0.91666667  0.44210000  0.00000000  1.0
  P5+  P69  1  0.08333333  0.55790000  0.50000000  1.0
  P5+  P70  1  0.41473593  0.55704314  0.49525141  1.0
  P5+  P71  1  0.75000000  0.55790000  0.50000000  1.0
  P5+  P72  1  0.08333333  0.25000000  0.00000000  1.0
  P5+  P73  1  0.41666667  0.25000000  0.00000000  1.0
  P5+  P74  1  0.75000000  0.25000000  0.00000000  1.0
  P5+  P75  1  0.25533363  0.75031230  0.50318754  1.0
  P5+  P76  1  0.58333333  0.75000000  0.50000000  1.0
  P5+  P77  1  0.91666667  0.75000000  0.50000000  1.0
  S2-  S78  1  0.14566667  0.15920000  0.00000000  1.0
  S2-  S79  1  0.48050409  0.15888745  0.99573427  1.0
  S2-  S80  1  0.81233333  0.15920000  0.00000000  1.0
  S2-  S81  1  0.02100000  0.15920000  0.00000000  1.0
  S2-  S82  1  0.35433333  0.15920000  0.00000000  1.0
  S2-  S83  1  0.68820041  0.15895918  0.00141213  1.0
  S2-  S84  1  0.25000000  0.65920000  0.31300000  1.0
  S2-  S85  1  0.58333333  0.65920000  0.31300000  1.0
  S2-  S86  1  0.91503628  0.65981163  0.31555657  1.0
  S2-  S87  1  0.25285278  0.65899872  0.68634384  1.0
  S2-  S88  1  0.58333333  0.65920000  0.68700000  1.0
  S2-  S89  1  0.91666667  0.65920000  0.68700000  1.0
  S2-  S90  1  0.18766667  0.84080000  0.50000000  1.0
  S2-  S91  1  0.51539931  0.83697436  0.49934303  1.0
  S2-  S92  1  0.85433333  0.84080000  0.50000000  1.0
  S2-  S93  1  0.31233333  0.84080000  0.50000000  1.0
  S2-  S94  1  0.64566667  0.84080000  0.50000000  1.0
  S2-  S95  1  0.97900000  0.84080000  0.50000000  1.0
  S2-  S96  1  0.08333333  0.34080000  0.18700000  1.0
  S2-  S97  1  0.41799571  0.34463362  0.18843787  1.0
  S2-  S98  1  0.75000000  0.34080000  0.18700000  1.0
  S2-  S99  1  0.08333333  0.34080000  0.81300000  1.0
  S2-  S100  1  0.41388299  0.34547294  0.81165709  1.0
  S2-  S101  1  0.75000000  0.34080000  0.81300000  1.0
  S2-  S102  1  0.18143333  0.84680000  0.00000000  1.0
  S2-  S103  1  0.51476667  0.84680000  0.00000000  1.0
  S2-  S104  1  0.84639130  0.84606903  0.00071711  1.0
  S2-  S105  1  0.31856667  0.84680000  0.00000000  1.0
  S2-  S106  1  0.65061338  0.84567051  0.99682496  1.0
  S2-  S107  1  0.98833167  0.84641687  0.00349458  1.0
  S2-  S108  1  0.25000000  0.34680000  0.20570000  1.0
  S2-  S109  1  0.58817780  0.34459539  0.20885184  1.0
  S2-  S110  1  0.91666667  0.34680000  0.20570000  1.0
  S2-  S111  1  0.25000000  0.34680000  0.79430000  1.0
  S2-  S112  1  0.58333333  0.34680000  0.79430000  1.0
  S2-  S113  1  0.91666667  0.34680000  0.79430000  1.0
  S2-  S114  1  0.15190000  0.15320000  0.50000000  1.0
  S2-  S115  1  0.48523333  0.15320000  0.50000000  1.0
  S2-  S116  1  0.81856667  0.15320000  0.50000000  1.0
  S2-  S117  1  0.01476667  0.15320000  0.50000000  1.0
  S2-  S118  1  0.34810000  0.15320000  0.50000000  1.0
  S2-  S119  1  0.68143333  0.15320000  0.50000000  1.0
  S2-  S120  1  0.08333333  0.65320000  0.29430000  1.0
  S2-  S121  1  0.41666667  0.65320000  0.29430000  1.0
  S2-  S122  1  0.75000000  0.65320000  0.29430000  1.0
  S2-  S123  1  0.08333333  0.65320000  0.70570000  1.0
  S2-  S124  1  0.41666667  0.65320000  0.70570000  1.0
  S2-  S125  1  0.74924261  0.65052521  0.70949977  1.0
  S2-  S126  1  0.31533333  0.54380000  0.00000000  1.0
  S2-  S127  1  0.64479103  0.54316261  0.00104737  1.0
  S2-  S128  1  0.98101759  0.54748871  0.00121166  1.0
  S2-  S129  1  0.18466667  0.54380000  0.00000000  1.0
  S2-  S130  1  0.51800000  0.54380000  0.00000000  1.0
  S2-  S131  1  0.85133333  0.54380000  0.00000000  1.0
  S2-  S132  1  0.25000000  0.04380000  0.80400000  1.0
  S2-  S133  1  0.58333333  0.04380000  0.80400000  1.0
  S2-  S134  1  0.91666667  0.04380000  0.80400000  1.0
  S2-  S135  1  0.25426141  0.04202356  0.20006288  1.0
  S2-  S136  1  0.58333333  0.04380000  0.19600000  1.0
  S2-  S137  1  0.91604835  0.04562065  0.19400969  1.0
  S2-  S138  1  0.01800000  0.45620000  0.50000000  1.0
  S2-  S139  1  0.35133333  0.45620000  0.50000000  1.0
  S2-  S140  1  0.68466667  0.45620000  0.50000000  1.0
  S2-  S141  1  0.14866667  0.45620000  0.50000000  1.0
  S2-  S142  1  0.48200000  0.45620000  0.50000000  1.0
  S2-  S143  1  0.81533333  0.45620000  0.50000000  1.0
  S2-  S144  1  0.08333333  0.95620000  0.69600000  1.0
  S2-  S145  1  0.41666667  0.95620000  0.69600000  1.0
  S2-  S146  1  0.75000000  0.95620000  0.69600000  1.0
  S2-  S147  1  0.08333333  0.95620000  0.30400000  1.0
  S2-  S148  1  0.41880123  0.96240681  0.30584242  1.0
  S2-  S149  1  0.75000000  0.95620000  0.30400000  1.0
