# generated using pymatgen
data_Li10Ge(PS6)2
_symmetry_space_group_name_H-M   'P 1'
_cell_length_a   8.76466493
_cell_length_b   26.29399478
_cell_length_c   12.68516572
_cell_angle_alpha   90.00000000
_cell_angle_beta   90.00000000
_cell_angle_gamma   90.00000000
_symmetry_Int_Tables_number   1
_chemical_formula_structural   Li10Ge(PS6)2
_chemical_formula_sum   'Li60 Ge6 P12 S72'
_cell_volume   2923.39860546
_cell_formula_units_Z   6
loop_
 _symmetry_equiv_pos_site_id
 _symmetry_equiv_pos_as_xyz
  1  'x, y, z'
loop_
 _atom_type_symbol
 _atom_type_oxidation_number
  Li+  1.0
  Ge4+  4.0
  P5+  5.0
  S2-  -2.0
loop_
 _atom_site_type_symbol
 _atom_site_label
 _atom_site_symmetry_multiplicity
 _atom_site_fract_x
 _atom_site_fract_y
 _atom_site_fract_z
 _atom_site_occupancy
  Li+  Li0  1  0.25000000  0.40866667  0.30500000  1.0
  Li+  Li1  1  0.25000000  0.07533333  0.30500000  1.0
  Li+  Li2  1  0.25000000  0.74200000  0.30500000  1.0
  Li+  Li3  1  0.22600000  0.41666667  0.80500000  1.0
  Li+  Li4  1  0.22600000  0.08333333  0.80500000  1.0
  Li+  Li5  1  0.22600000  0.75000000  0.80500000  1.0
  Li+  Li6  1  0.75000000  0.57533333  0.69500000  1.0
  Li+  Li7  1  0.75000000  0.24200000  0.69500000  1.0
  Li+  Li8  1  0.75000000  0.90866667  0.69500000  1.0
  Li+  Li9  1  0.72600000  0.58333333  0.19500000  1.0
  Li+  Li10  1  0.72600000  0.25000000  0.19500000  1.0
  Li+  Li11  1  0.72600000  0.91666667  0.19500000  1.0
  Li+  Li12  1  0.00200000  0.49566667  0.05310000  1.0
  Li+  Li13  1  0.00200000  0.16233333  0.05310000  1.0
  Li+  Li14  1  0.00200000  0.82900000  0.05310000  1.0
  Li+  Li15  1  0.00200000  0.33766667  0.05310000  1.0
  Li+  Li16  1  0.00200000  0.00433333  0.05310000  1.0
  Li+  Li17  1  0.00200000  0.67100000  0.05310000  1.0
  Li+  Li18  1  0.48700000  0.33400000  0.55310000  1.0
  Li+  Li19  1  0.48700000  0.00066667  0.55310000  1.0
  Li+  Li20  1  0.48700000  0.66733333  0.55310000  1.0
  Li+  Li21  1  0.01300000  0.33400000  0.55310000  1.0
  Li+  Li22  1  0.01300000  0.00066667  0.55310000  1.0
  Li+  Li23  1  0.01300000  0.66733333  0.55310000  1.0
  Li+  Li24  1  0.50200000  0.50433333  0.94690000  1.0
  Li+  Li25  1  0.50200000  0.17100000  0.94690000  1.0
  Li+  Li26  1  0.50200000  0.83766667  0.94690000  1.0
  Li+  Li27  1  0.50200000  0.66233333  0.94690000  1.0
  Li+  Li28  1  0.50200000  0.32900000  0.94690000  1.0
  Li+  Li29  1  0.50200000  0.99566667  0.94690000  1.0
  Li+  Li30  1  0.51300000  0.50066667  0.44690000  1.0
  Li+  Li31  1  0.51300000  0.16733333  0.44690000  1.0
  Li+  Li32  1  0.51300000  0.83400000  0.44690000  1.0
  Li+  Li33  1  0.98700000  0.50066667  0.44690000  1.0
  Li+  Li34  1  0.98700000  0.16733333  0.44690000  1.0
  Li+  Li35  1  0.98700000  0.83400000  0.44690000  1.0
  Li+  Li36  1  0.00400000  0.66533333  0.25000000  1.0
  Li+  Li37  1  0.00400000  0.33200000  0.25000000  1.0
  Li+  Li38  1  0.00400000  0.99866667  0.25000000  1.0
  Li+  Li39  1  0.49600000  0.50133333  0.25000000  1.0
  Li+  Li40  1  0.49600000  0.16800000  0.25000000  1.0
  Li+  Li41  1  0.49600000  0.83466667  0.25000000  1.0
  Li+  Li42  1  0.49600000  0.66533333  0.25000000  1.0
  Li+  Li43  1  0.49600000  0.33200000  0.25000000  1.0
  Li+  Li44  1  0.49600000  0.99866667  0.25000000  1.0
  Li+  Li45  1  0.50400000  0.49866667  0.75000000  1.0
  Li+  Li46  1  0.50400000  0.16533333  0.75000000  1.0
  Li+  Li47  1  0.50400000  0.83200000  0.75000000  1.0
  Li+  Li48  1  0.99600000  0.33466667  0.75000000  1.0
  Li+  Li49  1  0.99600000  0.00133333  0.75000000  1.0
  Li+  Li50  1  0.99600000  0.66800000  0.75000000  1.0
  Li+  Li51  1  0.99600000  0.49866667  0.75000000  1.0
  Li+  Li52  1  0.99600000  0.16533333  0.75000000  1.0
  Li+  Li53  1  0.99600000  0.83200000  0.75000000  1.0
  Li+  Li54  1  0.75000000  0.41666667  0.99900000  1.0
  Li+  Li55  1  0.75000000  0.08333333  0.99900000  1.0
  Li+  Li56  1  0.75000000  0.75000000  0.99900000  1.0
  Li+  Li57  1  0.25000000  0.58333333  0.49900000  1.0
  Li+  Li58  1  0.25000000  0.25000000  0.49900000  1.0
  Li+  Li59  1  0.25000000  0.91666667  0.49900000  1.0
  Ge4+  Ge60  1  0.25000000  0.41666667  0.05790000  1.0
  Ge4+  Ge61  1  0.25000000  0.08333333  0.05790000  1.0
  Ge4+  Ge62  1  0.25000000  0.75000000  0.05790000  1.0
  Ge4+  Ge63  1  0.75000000  0.58333333  0.94210000  1.0
  Ge4+  Ge64  1  0.75000000  0.25000000  0.94210000  1.0
  Ge4+  Ge65  1  0.75000000  0.91666667  0.94210000  1.0
  P5+  P66  1  0.25000000  0.41666667  0.55790000  1.0
  P5+  P67  1  0.25000000  0.08333333  0.55790000  1.0
  P5+  P68  1  0.25000000  0.75000000  0.55790000  1.0
  P5+  P69  1  0.75000000  0.58333333  0.44210000  1.0
  P5+  P70  1  0.75000000  0.25000000  0.44210000  1.0
  P5+  P71  1  0.75000000  0.91666667  0.44210000  1.0
  P5+  P72  1  0.25000000  0.58333333  0.75000000  1.0
  P5+  P73  1  0.25000000  0.25000000  0.75000000  1.0
  P5+  P74  1  0.25000000  0.91666667  0.75000000  1.0
  P5+  P75  1  0.75000000  0.41666667  0.25000000  1.0
  P5+  P76  1  0.75000000  0.08333333  0.25000000  1.0
  P5+  P77  1  0.75000000  0.75000000  0.25000000  1.0
  S2-  S78  1  0.25000000  0.52100000  0.84080000  1.0
  S2-  S79  1  0.25000000  0.18766667  0.84080000  1.0
  S2-  S80  1  0.25000000  0.85433333  0.84080000  1.0
  S2-  S81  1  0.25000000  0.64566667  0.84080000  1.0
  S2-  S82  1  0.25000000  0.31233333  0.84080000  1.0
  S2-  S83  1  0.25000000  0.97900000  0.84080000  1.0
  S2-  S84  1  0.56300000  0.41666667  0.34080000  1.0
  S2-  S85  1  0.56300000  0.08333333  0.34080000  1.0
  S2-  S86  1  0.56300000  0.75000000  0.34080000  1.0
  S2-  S87  1  0.93700000  0.41666667  0.34080000  1.0
  S2-  S88  1  0.93700000  0.08333333  0.34080000  1.0
  S2-  S89  1  0.93700000  0.75000000  0.34080000  1.0
  S2-  S90  1  0.75000000  0.47900000  0.15920000  1.0
  S2-  S91  1  0.75000000  0.14566667  0.15920000  1.0
  S2-  S92  1  0.75000000  0.81233333  0.15920000  1.0
  S2-  S93  1  0.75000000  0.35433333  0.15920000  1.0
  S2-  S94  1  0.75000000  0.02100000  0.15920000  1.0
  S2-  S95  1  0.75000000  0.68766667  0.15920000  1.0
  S2-  S96  1  0.43700000  0.58333333  0.65920000  1.0
  S2-  S97  1  0.43700000  0.25000000  0.65920000  1.0
  S2-  S98  1  0.43700000  0.91666667  0.65920000  1.0
  S2-  S99  1  0.06300000  0.58333333  0.65920000  1.0
  S2-  S100  1  0.06300000  0.25000000  0.65920000  1.0
  S2-  S101  1  0.06300000  0.91666667  0.65920000  1.0
  S2-  S102  1  0.25000000  0.48523333  0.15320000  1.0
  S2-  S103  1  0.25000000  0.15190000  0.15320000  1.0
  S2-  S104  1  0.25000000  0.81856667  0.15320000  1.0
  S2-  S105  1  0.25000000  0.34810000  0.15320000  1.0
  S2-  S106  1  0.25000000  0.01476667  0.15320000  1.0
  S2-  S107  1  0.25000000  0.68143333  0.15320000  1.0
  S2-  S108  1  0.45570000  0.41666667  0.65320000  1.0
  S2-  S109  1  0.45570000  0.08333333  0.65320000  1.0
  S2-  S110  1  0.45570000  0.75000000  0.65320000  1.0
  S2-  S111  1  0.04430000  0.41666667  0.65320000  1.0
  S2-  S112  1  0.04430000  0.08333333  0.65320000  1.0
  S2-  S113  1  0.04430000  0.75000000  0.65320000  1.0
  S2-  S114  1  0.75000000  0.51476667  0.84680000  1.0
  S2-  S115  1  0.75000000  0.18143333  0.84680000  1.0
  S2-  S116  1  0.75000000  0.84810000  0.84680000  1.0
  S2-  S117  1  0.75000000  0.65190000  0.84680000  1.0
  S2-  S118  1  0.75000000  0.31856667  0.84680000  1.0
  S2-  S119  1  0.75000000  0.98523333  0.84680000  1.0
  S2-  S120  1  0.54430000  0.58333333  0.34680000  1.0
  S2-  S121  1  0.54430000  0.25000000  0.34680000  1.0
  S2-  S122  1  0.54430000  0.91666667  0.34680000  1.0
  S2-  S123  1  0.95570000  0.58333333  0.34680000  1.0
  S2-  S124  1  0.95570000  0.25000000  0.34680000  1.0
  S2-  S125  1  0.95570000  0.91666667  0.34680000  1.0
  S2-  S126  1  0.25000000  0.35133333  0.45620000  1.0
  S2-  S127  1  0.25000000  0.01800000  0.45620000  1.0
  S2-  S128  1  0.25000000  0.68466667  0.45620000  1.0
  S2-  S129  1  0.25000000  0.48200000  0.45620000  1.0
  S2-  S130  1  0.25000000  0.14866667  0.45620000  1.0
  S2-  S131  1  0.25000000  0.81533333  0.45620000  1.0
  S2-  S132  1  0.05400000  0.41666667  0.95620000  1.0
  S2-  S133  1  0.05400000  0.08333333  0.95620000  1.0
  S2-  S134  1  0.05400000  0.75000000  0.95620000  1.0
  S2-  S135  1  0.44600000  0.41666667  0.95620000  1.0
  S2-  S136  1  0.44600000  0.08333333  0.95620000  1.0
  S2-  S137  1  0.44600000  0.75000000  0.95620000  1.0
  S2-  S138  1  0.75000000  0.64866667  0.54380000  1.0
  S2-  S139  1  0.75000000  0.31533333  0.54380000  1.0
  S2-  S140  1  0.75000000  0.98200000  0.54380000  1.0
  S2-  S141  1  0.75000000  0.51800000  0.54380000  1.0
  S2-  S142  1  0.75000000  0.18466667  0.54380000  1.0
  S2-  S143  1  0.75000000  0.85133333  0.54380000  1.0
  S2-  S144  1  0.94600000  0.58333333  0.04380000  1.0
  S2-  S145  1  0.94600000  0.25000000  0.04380000  1.0
  S2-  S146  1  0.94600000  0.91666667  0.04380000  1.0
  S2-  S147  1  0.55400000  0.58333333  0.04380000  1.0
  S2-  S148  1  0.55400000  0.25000000  0.04380000  1.0
  S2-  S149  1  0.55400000  0.91666667  0.04380000  1.0
