# generated using pymatgen
data_Li10Ge(PS6)2
_symmetry_space_group_name_H-M   'P 1'
_cell_length_a   26.13363000
_cell_length_b   8.71121000
_cell_length_c   12.60780000
_cell_angle_alpha   90.00000000
_cell_angle_beta   90.00000000
_cell_angle_gamma   90.00000000
_symmetry_Int_Tables_number   1
_chemical_formula_structural   Li10Ge(PS6)2
_chemical_formula_sum   'Li60 Ge6 P12 S72'
_cell_volume   2870.23550451
_cell_formula_units_Z   6
loop_
 _symmetry_equiv_pos_site_id
 _symmetry_equiv_pos_as_xyz
  1  'x, y, z'
loop_
 _atom_type_symbol
 _atom_type_oxidation_number
  Li+  1.0
  Ge4+  4.0
  P5+  5.0
  S2-  -2.0
loop_
 _atom_site_type_symbol
 _atom_site_label
 _atom_site_symmetry_multiplicity
 _atom_site_fract_x
 _atom_site_fract_y
 _atom_site_fract_z
 _atom_site_occupancy
  Li+  Li0  1  0.25800000  0.75000000  0.30500000  1.0
  Li+  Li0  1  0.59133333  0.75000000  0.30500000  1.0
  Li+  Li0  1  0.92466667  0.75000000  0.30500000  1.0
  Li+  Li1  1  0.25000000  0.77400000  0.80500000  1.0
  Li+  Li1  1  0.58333333  0.77400000  0.80500000  1.0
  Li+  Li1  1  0.91666667  0.77400000  0.80500000  1.0
  Li+  Li2  1  0.09133333  0.25000000  0.69500000  1.0
  Li+  Li2  1  0.42466667  0.25000000  0.69500000  1.0
  Li+  Li2  1  0.75800000  0.25000000  0.69500000  1.0
  Li+  Li3  1  0.08333333  0.27400000  0.19500000  1.0
  Li+  Li3  1  0.41666667  0.27400000  0.19500000  1.0
  Li+  Li3  1  0.75000000  0.27400000  0.19500000  1.0
  Li+  Li4  1  0.17100000  0.99800000  0.05310000  1.0
  Li+  Li4  1  0.50433333  0.99800000  0.05310000  1.0
  Li+  Li4  1  0.83766667  0.99800000  0.05310000  1.0
  Li+  Li5  1  0.32900000  0.99800000  0.05310000  1.0
  Li+  Li5  1  0.66233333  0.99800000  0.05310000  1.0
  Li+  Li5  1  0.99566667  0.99800000  0.05310000  1.0
  Li+  Li6  1  0.33266667  0.51300000  0.55310000  1.0
  Li+  Li6  1  0.66600000  0.51300000  0.55310000  1.0
  Li+  Li6  1  0.99933333  0.51300000  0.55310000  1.0
  Li+  Li7  1  0.33266667  0.98700000  0.55310000  1.0
  Li+  Li7  1  0.66600000  0.98700000  0.55310000  1.0
  Li+  Li7  1  0.99933333  0.98700000  0.55310000  1.0
  Li+  Li8  1  0.16233333  0.49800000  0.94690000  1.0
  Li+  Li8  1  0.49566667  0.49800000  0.94690000  1.0
  Li+  Li8  1  0.82900000  0.49800000  0.94690000  1.0
  Li+  Li9  1  0.00433333  0.49800000  0.94690000  1.0
  Li+  Li9  1  0.33766667  0.49800000  0.94690000  1.0
  Li+  Li9  1  0.67100000  0.49800000  0.94690000  1.0
  Li+  Li10  1  0.16600000  0.48700000  0.44690000  1.0
  Li+  Li10  1  0.49933333  0.48700000  0.44690000  1.0
  Li+  Li10  1  0.83266667  0.48700000  0.44690000  1.0
  Li+  Li11  1  0.16600000  0.01300000  0.44690000  1.0
  Li+  Li11  1  0.49933333  0.01300000  0.44690000  1.0
  Li+  Li11  1  0.83266667  0.01300000  0.44690000  1.0
  Li+  Li12  1  0.00133333  0.99600000  0.25000000  1.0
  Li+  Li12  1  0.33466667  0.99600000  0.25000000  1.0
  Li+  Li12  1  0.66800000  0.99600000  0.25000000  1.0
  Li+  Li13  1  0.16533333  0.50400000  0.25000000  1.0
  Li+  Li13  1  0.49866667  0.50400000  0.25000000  1.0
  Li+  Li13  1  0.83200000  0.50400000  0.25000000  1.0
  Li+  Li14  1  0.00133333  0.50400000  0.25000000  1.0
  Li+  Li14  1  0.33466667  0.50400000  0.25000000  1.0
  Li+  Li14  1  0.66800000  0.50400000  0.25000000  1.0
  Li+  Li15  1  0.16800000  0.49600000  0.75000000  1.0
  Li+  Li15  1  0.50133333  0.49600000  0.75000000  1.0
  Li+  Li15  1  0.83466667  0.49600000  0.75000000  1.0
  Li+  Li16  1  0.33200000  0.00400000  0.75000000  1.0
  Li+  Li16  1  0.66533333  0.00400000  0.75000000  1.0
  Li+  Li16  1  0.99866667  0.00400000  0.75000000  1.0
  Li+  Li17  1  0.16800000  0.00400000  0.75000000  1.0
  Li+  Li17  1  0.50133333  0.00400000  0.75000000  1.0
  Li+  Li17  1  0.83466667  0.00400000  0.75000000  1.0
  Li+  Li18  1  0.25000000  0.25000000  0.99900000  1.0
  Li+  Li18  1  0.58333333  0.25000000  0.99900000  1.0
  Li+  Li18  1  0.91666667  0.25000000  0.99900000  1.0
  Li+  Li19  1  0.08333333  0.75000000  0.49900000  1.0
  Li+  Li19  1  0.41666667  0.75000000  0.49900000  1.0
  Li+  Li19  1  0.75000000  0.75000000  0.49900000  1.0
  Ge4+  Ge20  1  0.25000000  0.75000000  0.05790000  1.0
  Ge4+  Ge20  1  0.58333333  0.75000000  0.05790000  1.0
  Ge4+  Ge20  1  0.91666667  0.75000000  0.05790000  1.0
  Ge4+  Ge21  1  0.08333333  0.25000000  0.94210000  1.0
  Ge4+  Ge21  1  0.41666667  0.25000000  0.94210000  1.0
  Ge4+  Ge21  1  0.75000000  0.25000000  0.94210000  1.0
  P5+  P22  1  0.25000000  0.75000000  0.55790000  1.0
  P5+  P22  1  0.58333333  0.75000000  0.55790000  1.0
  P5+  P22  1  0.91666667  0.75000000  0.55790000  1.0
  P5+  P23  1  0.08333333  0.25000000  0.44210000  1.0
  P5+  P23  1  0.41666667  0.25000000  0.44210000  1.0
  P5+  P23  1  0.75000000  0.25000000  0.44210000  1.0
  P5+  P2  1  0.08333333  0.75000000  0.75000000  1.0
  P5+  P2  1  0.41666667  0.75000000  0.75000000  1.0
  P5+  P2  1  0.75000000  0.75000000  0.75000000  1.0
  P5+  P2  1  0.25000000  0.25000000  0.25000000  1.0
  P5+  P2  1  0.58333333  0.25000000  0.25000000  1.0
  P5+  P2  1  0.91666667  0.25000000  0.25000000  1.0
  S2-  S1  1  0.14566667  0.75000000  0.84080000  1.0
  S2-  S1  1  0.47900000  0.75000000  0.84080000  1.0
  S2-  S1  1  0.81233333  0.75000000  0.84080000  1.0
  S2-  S1  1  0.02100000  0.75000000  0.84080000  1.0
  S2-  S1  1  0.35433333  0.75000000  0.84080000  1.0
  S2-  S1  1  0.68766667  0.75000000  0.84080000  1.0
  S2-  S1  1  0.25000000  0.43700000  0.34080000  1.0
  S2-  S1  1  0.58333333  0.43700000  0.34080000  1.0
  S2-  S1  1  0.91666667  0.43700000  0.34080000  1.0
  S2-  S1  1  0.25000000  0.06300000  0.34080000  1.0
  S2-  S1  1  0.58333333  0.06300000  0.34080000  1.0
  S2-  S1  1  0.91666667  0.06300000  0.34080000  1.0
  S2-  S1  1  0.18766667  0.25000000  0.15920000  1.0
  S2-  S1  1  0.52100000  0.25000000  0.15920000  1.0
  S2-  S1  1  0.85433333  0.25000000  0.15920000  1.0
  S2-  S1  1  0.31233333  0.25000000  0.15920000  1.0
  S2-  S1  1  0.64566667  0.25000000  0.15920000  1.0
  S2-  S1  1  0.97900000  0.25000000  0.15920000  1.0
  S2-  S1  1  0.08333333  0.56300000  0.65920000  1.0
  S2-  S1  1  0.41666667  0.56300000  0.65920000  1.0
  S2-  S1  1  0.75000000  0.56300000  0.65920000  1.0
  S2-  S1  1  0.08333333  0.93700000  0.65920000  1.0
  S2-  S1  1  0.41666667  0.93700000  0.65920000  1.0
  S2-  S1  1  0.75000000  0.93700000  0.65920000  1.0
  S2-  S2  1  0.18143333  0.75000000  0.15320000  1.0
  S2-  S2  1  0.51476667  0.75000000  0.15320000  1.0
  S2-  S2  1  0.84810000  0.75000000  0.15320000  1.0
  S2-  S2  1  0.31856667  0.75000000  0.15320000  1.0
  S2-  S2  1  0.65190000  0.75000000  0.15320000  1.0
  S2-  S2  1  0.98523333  0.75000000  0.15320000  1.0
  S2-  S2  1  0.25000000  0.54430000  0.65320000  1.0
  S2-  S2  1  0.58333333  0.54430000  0.65320000  1.0
  S2-  S2  1  0.91666667  0.54430000  0.65320000  1.0
  S2-  S2  1  0.25000000  0.95570000  0.65320000  1.0
  S2-  S2  1  0.58333333  0.95570000  0.65320000  1.0
  S2-  S2  1  0.91666667  0.95570000  0.65320000  1.0
  S2-  S2  1  0.15190000  0.25000000  0.84680000  1.0
  S2-  S2  1  0.48523333  0.25000000  0.84680000  1.0
  S2-  S2  1  0.81856667  0.25000000  0.84680000  1.0
  S2-  S2  1  0.01476667  0.25000000  0.84680000  1.0
  S2-  S2  1  0.34810000  0.25000000  0.84680000  1.0
  S2-  S2  1  0.68143333  0.25000000  0.84680000  1.0
  S2-  S2  1  0.08333333  0.45570000  0.34680000  1.0
  S2-  S2  1  0.41666667  0.45570000  0.34680000  1.0
  S2-  S2  1  0.75000000  0.45570000  0.34680000  1.0
  S2-  S2  1  0.08333333  0.04430000  0.34680000  1.0
  S2-  S2  1  0.41666667  0.04430000  0.34680000  1.0
  S2-  S2  1  0.75000000  0.04430000  0.34680000  1.0
  S2-  S3  1  0.31533333  0.75000000  0.45620000  1.0
  S2-  S3  1  0.64866667  0.75000000  0.45620000  1.0
  S2-  S3  1  0.98200000  0.75000000  0.45620000  1.0
  S2-  S3  1  0.18466667  0.75000000  0.45620000  1.0
  S2-  S3  1  0.51800000  0.75000000  0.45620000  1.0
  S2-  S3  1  0.85133333  0.75000000  0.45620000  1.0
  S2-  S3  1  0.25000000  0.94600000  0.95620000  1.0
  S2-  S3  1  0.58333333  0.94600000  0.95620000  1.0
  S2-  S3  1  0.91666667  0.94600000  0.95620000  1.0
  S2-  S3  1  0.25000000  0.55400000  0.95620000  1.0
  S2-  S3  1  0.58333333  0.55400000  0.95620000  1.0
  S2-  S3  1  0.91666667  0.55400000  0.95620000  1.0
  S2-  S3  1  0.01800000  0.25000000  0.54380000  1.0
  S2-  S3  1  0.35133333  0.25000000  0.54380000  1.0
  S2-  S3  1  0.68466667  0.25000000  0.54380000  1.0
  S2-  S3  1  0.14866667  0.25000000  0.54380000  1.0
  S2-  S3  1  0.48200000  0.25000000  0.54380000  1.0
  S2-  S3  1  0.81533333  0.25000000  0.54380000  1.0
  S2-  S3  1  0.08333333  0.05400000  0.04380000  1.0
  S2-  S3  1  0.41666667  0.05400000  0.04380000  1.0
  S2-  S3  1  0.75000000  0.05400000  0.04380000  1.0
  S2-  S3  1  0.08333333  0.44600000  0.04380000  1.0
  S2-  S3  1  0.41666667  0.44600000  0.04380000  1.0
  S2-  S3  1  0.75000000  0.44600000  0.04380000  1.0
