# generated using pymatgen
data_Li6MgTi8O20
_symmetry_space_group_name_H-M   'P 1'
_cell_length_a   11.83215920
_cell_length_b   5.91607960
_cell_length_c   29.58039798
_cell_angle_alpha   60.00000000
_cell_angle_beta   120.00000000
_cell_angle_gamma   120.00000000
_symmetry_Int_Tables_number   1
_chemical_formula_structural   Li6MgTi8O20
_chemical_formula_sum   'Li24 Mg4 Ti32 O80'
_cell_volume   1464.15490950
_cell_formula_units_Z   4
loop_
 _symmetry_equiv_pos_site_id
 _symmetry_equiv_pos_as_xyz
  1  'x, y, z'
loop_
 _atom_type_symbol
 _atom_type_oxidation_number
  Li+  1.0
  Mg2+  2.0
  Ti4+  4.0
  O2-  -2.0
loop_
 _atom_site_type_symbol
 _atom_site_label
 _atom_site_symmetry_multiplicity
 _atom_site_fract_x
 _atom_site_fract_y
 _atom_site_fract_z
 _atom_site_occupancy
  Li+  Li0  1  0.43750000  0.62500000  0.47500000  1.0
  Li+  Li1  1  0.93834286  0.62561422  0.47606573  1.0
  Li+  Li2  1  0.43750000  0.62500000  0.07500000  1.0
  Li+  Li3  1  0.93750000  0.62500000  0.07500000  1.0
  Li+  Li4  1  0.43750000  0.62500000  0.87500000  1.0
  Li+  Li5  1  0.93750000  0.62500000  0.87500000  1.0
  Li+  Li6  1  0.18750000  0.12500000  0.67500000  1.0
  Li+  Li7  1  0.68750000  0.12500000  0.67500000  1.0
  Li+  Li8  1  0.37500000  0.25000000  0.60000000  1.0
  Li+  Li9  1  0.87254288  0.24908644  0.59683520  1.0
  Li+  Li10  1  0.37500000  0.25000000  0.40000000  1.0
  Li+  Li11  1  0.87592223  0.25234879  0.39923480  1.0
  Li+  Li12  1  0.37794926  0.24913284  0.19902401  1.0
  Li+  Li13  1  0.87500000  0.25000000  0.20000000  1.0
  Li+  Li14  1  0.37500000  0.25000000  0.00000000  1.0
  Li+  Li15  1  0.87500000  0.25000000  0.00000000  1.0
  Li+  Li16  1  0.00000000  0.00000000  0.55000000  1.0
  Li+  Li17  1  0.50000000  0.00000000  0.55000000  1.0
  Li+  Li18  1  0.00000000  0.00000000  0.35000000  1.0
  Li+  Li19  1  0.49978112  0.99968241  0.34976834  1.0
  Li+  Li20  1  0.00000000  0.00000000  0.15000000  1.0
  Li+  Li21  1  0.50000000  0.00000000  0.15000000  1.0
  Li+  Li22  1  0.00000000  0.00000000  0.95000000  1.0
  Li+  Li23  1  0.49705339  0.99967155  0.94748962  1.0
  Mg2+  Mg24  1  0.37500000  0.25000000  0.80000000  1.0
  Mg2+  Mg25  1  0.87500000  0.25000000  0.80000000  1.0
  Mg2+  Mg26  1  0.99677697  0.00195380  0.75511385  1.0
  Mg2+  Mg27  1  0.50000000  0.00000000  0.75000000  1.0
  Ti4+  Ti28  1  0.43750000  0.62500000  0.67500000  1.0
  Ti4+  Ti29  1  0.93750000  0.62500000  0.67500000  1.0
  Ti4+  Ti30  1  0.43788428  0.62128838  0.27580649  1.0
  Ti4+  Ti31  1  0.93750000  0.62500000  0.27500000  1.0
  Ti4+  Ti32  1  0.18750000  0.62500000  0.57500000  1.0
  Ti4+  Ti33  1  0.68257018  0.62433033  0.57377550  1.0
  Ti4+  Ti34  1  0.18750000  0.62500000  0.37500000  1.0
  Ti4+  Ti35  1  0.68784304  0.62317506  0.37992460  1.0
  Ti4+  Ti36  1  0.18750000  0.62500000  0.17500000  1.0
  Ti4+  Ti37  1  0.68469740  0.62721409  0.17061951  1.0
  Ti4+  Ti38  1  0.19305491  0.62686126  0.96988810  1.0
  Ti4+  Ti39  1  0.68750000  0.62500000  0.97500000  1.0
  Ti4+  Ti40  1  0.18750000  0.62500000  0.77500000  1.0
  Ti4+  Ti41  1  0.68750000  0.62500000  0.77500000  1.0
  Ti4+  Ti42  1  0.18750000  0.12500000  0.47500000  1.0
  Ti4+  Ti43  1  0.68750000  0.12500000  0.47500000  1.0
  Ti4+  Ti44  1  0.18750000  0.12500000  0.27500000  1.0
  Ti4+  Ti45  1  0.68750000  0.12500000  0.27500000  1.0
  Ti4+  Ti46  1  0.18750000  0.12500000  0.07500000  1.0
  Ti4+  Ti47  1  0.68716056  0.12828225  0.07431699  1.0
  Ti4+  Ti48  1  0.18750000  0.12500000  0.87500000  1.0
  Ti4+  Ti49  1  0.68750000  0.12500000  0.87500000  1.0
  Ti4+  Ti50  1  0.18750000  0.62500000  0.67500000  1.0
  Ti4+  Ti51  1  0.68750000  0.62500000  0.67500000  1.0
  Ti4+  Ti52  1  0.18750000  0.62500000  0.47500000  1.0
  Ti4+  Ti53  1  0.68750000  0.62500000  0.47500000  1.0
  Ti4+  Ti54  1  0.18750000  0.62500000  0.27500000  1.0
  Ti4+  Ti55  1  0.68750000  0.62500000  0.27500000  1.0
  Ti4+  Ti56  1  0.18829426  0.62351293  0.07418690  1.0
  Ti4+  Ti57  1  0.68750000  0.62500000  0.07500000  1.0
  Ti4+  Ti58  1  0.19114177  0.62231507  0.87300605  1.0
  Ti4+  Ti59  1  0.68313323  0.61886390  0.87692675  1.0
  O2-  O60  1  0.29405000  0.86270000  0.72254000  1.0
  O2-  O61  1  0.79405000  0.86270000  0.72254000  1.0
  O2-  O62  1  0.29662742  0.85908182  0.52887816  1.0
  O2-  O63  1  0.79405000  0.86270000  0.52254000  1.0
  O2-  O64  1  0.29405000  0.86270000  0.32254000  1.0
  O2-  O65  1  0.79405000  0.86270000  0.32254000  1.0
  O2-  O66  1  0.29405000  0.86270000  0.12254000  1.0
  O2-  O67  1  0.79405000  0.86270000  0.12254000  1.0
  O2-  O68  1  0.29405000  0.86270000  0.92254000  1.0
  O2-  O69  1  0.79405000  0.86270000  0.92254000  1.0
  O2-  O70  1  0.07018470  0.86576418  0.63140999  1.0
  O2-  O71  1  0.56865000  0.86270000  0.63238000  1.0
  O2-  O72  1  0.06865000  0.86270000  0.43238000  1.0
  O2-  O73  1  0.56865000  0.86270000  0.43238000  1.0
  O2-  O74  1  0.06865000  0.86270000  0.23238000  1.0
  O2-  O75  1  0.56865000  0.86270000  0.23238000  1.0
  O2-  O76  1  0.06865000  0.86270000  0.03238000  1.0
  O2-  O77  1  0.56692076  0.86027786  0.03320829  1.0
  O2-  O78  1  0.06865000  0.86270000  0.83238000  1.0
  O2-  O79  1  0.56865000  0.86270000  0.83238000  1.0
  O2-  O80  1  0.06865000  0.41190000  0.72254000  1.0
  O2-  O81  1  0.56594029  0.41252517  0.71983273  1.0
  O2-  O82  1  0.06865000  0.41190000  0.52254000  1.0
  O2-  O83  1  0.56865000  0.41190000  0.52254000  1.0
  O2-  O84  1  0.06865000  0.41190000  0.32254000  1.0
  O2-  O85  1  0.56865000  0.41190000  0.32254000  1.0
  O2-  O86  1  0.06865000  0.41190000  0.12254000  1.0
  O2-  O87  1  0.56865000  0.41190000  0.12254000  1.0
  O2-  O88  1  0.06865000  0.41190000  0.92254000  1.0
  O2-  O89  1  0.56865000  0.41190000  0.92254000  1.0
  O2-  O90  1  0.06865000  0.86270000  0.72254000  1.0
  O2-  O91  1  0.56865000  0.86270000  0.72254000  1.0
  O2-  O92  1  0.06865000  0.86270000  0.52254000  1.0
  O2-  O93  1  0.56865000  0.86270000  0.52254000  1.0
  O2-  O94  1  0.07018865  0.86312212  0.32341432  1.0
  O2-  O95  1  0.56865000  0.86270000  0.32254000  1.0
  O2-  O96  1  0.06865000  0.86270000  0.12254000  1.0
  O2-  O97  1  0.56865000  0.86270000  0.12254000  1.0
  O2-  O98  1  0.06865000  0.86270000  0.92254000  1.0
  O2-  O99  1  0.56737442  0.86120028  0.91989257  1.0
  O2-  O100  1  0.08387248  0.38827015  0.62963783  1.0
  O2-  O101  1  0.58095000  0.38730000  0.62746000  1.0
  O2-  O102  1  0.08095000  0.38730000  0.42746000  1.0
  O2-  O103  1  0.58091365  0.38488406  0.42685868  1.0
  O2-  O104  1  0.08095000  0.38730000  0.22746000  1.0
  O2-  O105  1  0.58095000  0.38730000  0.22746000  1.0
  O2-  O106  1  0.08095000  0.38730000  0.02746000  1.0
  O2-  O107  1  0.58661659  0.38858058  0.03093090  1.0
  O2-  O108  1  0.08095000  0.38730000  0.82746000  1.0
  O2-  O109  1  0.58095000  0.38730000  0.82746000  1.0
  O2-  O110  1  0.30635000  0.38730000  0.71762000  1.0
  O2-  O111  1  0.80864553  0.38661406  0.71519223  1.0
  O2-  O112  1  0.30532413  0.39334513  0.51988244  1.0
  O2-  O113  1  0.80635000  0.38730000  0.51762000  1.0
  O2-  O114  1  0.31012029  0.38766254  0.32125619  1.0
  O2-  O115  1  0.80699827  0.38989717  0.31482754  1.0
  O2-  O116  1  0.30635000  0.38730000  0.11762000  1.0
  O2-  O117  1  0.80506130  0.38762860  0.11636519  1.0
  O2-  O118  1  0.30324846  0.39032501  0.92080117  1.0
  O2-  O119  1  0.80417263  0.38976321  0.91858308  1.0
  O2-  O120  1  0.30635000  0.83810000  0.62746000  1.0
  O2-  O121  1  0.80790311  0.84308002  0.62702614  1.0
  O2-  O122  1  0.30635000  0.83810000  0.42746000  1.0
  O2-  O123  1  0.80635000  0.83810000  0.42746000  1.0
  O2-  O124  1  0.30635000  0.83810000  0.22746000  1.0
  O2-  O125  1  0.80635000  0.83810000  0.22746000  1.0
  O2-  O126  1  0.30635000  0.83810000  0.02746000  1.0
  O2-  O127  1  0.80635000  0.83810000  0.02746000  1.0
  O2-  O128  1  0.30635000  0.83810000  0.82746000  1.0
  O2-  O129  1  0.80635000  0.83810000  0.82746000  1.0
  O2-  O130  1  0.31204743  0.38769128  0.62855341  1.0
  O2-  O131  1  0.80635000  0.38730000  0.62746000  1.0
  O2-  O132  1  0.30635000  0.38730000  0.42746000  1.0
  O2-  O133  1  0.80635000  0.38730000  0.42746000  1.0
  O2-  O134  1  0.30635000  0.38730000  0.22746000  1.0
  O2-  O135  1  0.80635000  0.38730000  0.22746000  1.0
  O2-  O136  1  0.30632022  0.38636703  0.03163699  1.0
  O2-  O137  1  0.80635000  0.38730000  0.02746000  1.0
  O2-  O138  1  0.30635000  0.38730000  0.82746000  1.0
  O2-  O139  1  0.80635000  0.38730000  0.82746000  1.0
