# generated using pymatgen
data_Li6MgTi8O20
_symmetry_space_group_name_H-M   'P 1'
_cell_length_a   29.35293876
_cell_length_b   11.74117551
_cell_length_c   5.87058776
_cell_angle_alpha   120.00000000
_cell_angle_beta   120.00000000
_cell_angle_gamma   60.00000000
_symmetry_Int_Tables_number   1
_chemical_formula_structural   Li6MgTi8O20
_chemical_formula_sum   'Li24 Mg4 Ti32 O80'
_cell_volume   1430.63799684
_cell_formula_units_Z   4
loop_
 _symmetry_equiv_pos_site_id
 _symmetry_equiv_pos_as_xyz
  1  'x, y, z'
loop_
 _atom_type_symbol
 _atom_type_oxidation_number
  Li+  1.0
  Mg2+  2.0
  Ti4+  4.0
  O2-  -2.0
loop_
 _atom_site_type_symbol
 _atom_site_label
 _atom_site_symmetry_multiplicity
 _atom_site_fract_x
 _atom_site_fract_y
 _atom_site_fract_z
 _atom_site_occupancy
  Li+  Li0  1  0.72500000  0.22916667  0.37500000  1.0
  Li+  Li1  1  0.72500000  0.72916667  0.37500000  1.0
  Li+  Li2  1  0.32500000  0.22916667  0.37500000  1.0
  Li+  Li3  1  0.32500000  0.72916667  0.37500000  1.0
  Li+  Li4  1  0.12500000  0.22916667  0.37500000  1.0
  Li+  Li5  1  0.12500000  0.72916667  0.37500000  1.0
  Li+  Li6  1  0.92500000  0.47916667  0.87500000  1.0
  Li+  Li7  1  0.92500000  0.97916667  0.87500000  1.0
  Li+  Li8  1  0.85000000  0.29166667  0.75000000  1.0
  Li+  Li9  1  0.85000000  0.79166667  0.75000000  1.0
  Li+  Li10  1  0.65000000  0.29166667  0.75000000  1.0
  Li+  Li11  1  0.65000000  0.79166667  0.75000000  1.0
  Li+  Li12  1  0.45000000  0.29166667  0.75000000  1.0
  Li+  Li13  1  0.45000000  0.79166667  0.75000000  1.0
  Li+  Li14  1  0.25000000  0.29166667  0.75000000  1.0
  Li+  Li15  1  0.25000000  0.79166667  0.75000000  1.0
  Li+  Li16  1  0.80000000  0.66666667  0.00000000  1.0
  Li+  Li17  1  0.80000000  0.16666667  0.00000000  1.0
  Li+  Li18  1  0.60000000  0.66666667  0.00000000  1.0
  Li+  Li19  1  0.60000000  0.16666667  0.00000000  1.0
  Li+  Li20  1  0.40000000  0.66666667  0.00000000  1.0
  Li+  Li21  1  0.40000000  0.16666667  0.00000000  1.0
  Li+  Li22  1  0.20000000  0.66666667  0.00000000  1.0
  Li+  Li23  1  0.20000000  0.16666667  0.00000000  1.0
  Mg2+  Mg24  1  0.05000000  0.29166667  0.75000000  1.0
  Mg2+  Mg25  1  0.05000000  0.79166667  0.75000000  1.0
  Mg2+  Mg26  1  0.00000000  0.66666667  0.00000000  1.0
  Mg2+  Mg27  1  0.00000000  0.16666667  0.00000000  1.0
  Ti4+  Ti28  1  0.92500000  0.22916667  0.37500000  1.0
  Ti4+  Ti29  1  0.92500000  0.72916667  0.37500000  1.0
  Ti4+  Ti30  1  0.52500000  0.22916667  0.37500000  1.0
  Ti4+  Ti31  1  0.52500000  0.72916667  0.37500000  1.0
  Ti4+  Ti32  1  0.82500000  0.47916667  0.37500000  1.0
  Ti4+  Ti33  1  0.82500000  0.97916667  0.37500000  1.0
  Ti4+  Ti34  1  0.62500000  0.47916667  0.37500000  1.0
  Ti4+  Ti35  1  0.62500000  0.97916667  0.37500000  1.0
  Ti4+  Ti36  1  0.42500000  0.47916667  0.37500000  1.0
  Ti4+  Ti37  1  0.42500000  0.97916667  0.37500000  1.0
  Ti4+  Ti38  1  0.22500000  0.47916667  0.37500000  1.0
  Ti4+  Ti39  1  0.22500000  0.97916667  0.37500000  1.0
  Ti4+  Ti40  1  0.02500000  0.47916667  0.37500000  1.0
  Ti4+  Ti41  1  0.02500000  0.97916667  0.37500000  1.0
  Ti4+  Ti42  1  0.72500000  0.47916667  0.87500000  1.0
  Ti4+  Ti43  1  0.72500000  0.97916667  0.87500000  1.0
  Ti4+  Ti44  1  0.52500000  0.47916667  0.87500000  1.0
  Ti4+  Ti45  1  0.52500000  0.97916667  0.87500000  1.0
  Ti4+  Ti46  1  0.32500000  0.47916667  0.87500000  1.0
  Ti4+  Ti47  1  0.32500000  0.97916667  0.87500000  1.0
  Ti4+  Ti48  1  0.12500000  0.47916667  0.87500000  1.0
  Ti4+  Ti49  1  0.12500000  0.97916667  0.87500000  1.0
  Ti4+  Ti50  1  0.92500000  0.47916667  0.37500000  1.0
  Ti4+  Ti51  1  0.92500000  0.97916667  0.37500000  1.0
  Ti4+  Ti52  1  0.72500000  0.47916667  0.37500000  1.0
  Ti4+  Ti53  1  0.72500000  0.97916667  0.37500000  1.0
  Ti4+  Ti54  1  0.52500000  0.47916667  0.37500000  1.0
  Ti4+  Ti55  1  0.52500000  0.97916667  0.37500000  1.0
  Ti4+  Ti56  1  0.32500000  0.47916667  0.37500000  1.0
  Ti4+  Ti57  1  0.32500000  0.97916667  0.37500000  1.0
  Ti4+  Ti58  1  0.12500000  0.47916667  0.37500000  1.0
  Ti4+  Ti59  1  0.12500000  0.97916667  0.37500000  1.0
  O2-  O60  1  0.97254000  0.37261667  0.13730000  1.0
  O2-  O61  1  0.97254000  0.87261667  0.13730000  1.0
  O2-  O62  1  0.77254000  0.37261667  0.13730000  1.0
  O2-  O63  1  0.77254000  0.87261667  0.13730000  1.0
  O2-  O64  1  0.57254000  0.37261667  0.13730000  1.0
  O2-  O65  1  0.57254000  0.87261667  0.13730000  1.0
  O2-  O66  1  0.37254000  0.37261667  0.13730000  1.0
  O2-  O67  1  0.37254000  0.87261667  0.13730000  1.0
  O2-  O68  1  0.17254000  0.37261667  0.13730000  1.0
  O2-  O69  1  0.17254000  0.87261667  0.13730000  1.0
  O2-  O70  1  0.88238000  0.59801667  0.13730000  1.0
  O2-  O71  1  0.88238000  0.09801667  0.13730000  1.0
  O2-  O72  1  0.68238000  0.59801667  0.13730000  1.0
  O2-  O73  1  0.68238000  0.09801667  0.13730000  1.0
  O2-  O74  1  0.48238000  0.59801667  0.13730000  1.0
  O2-  O75  1  0.48238000  0.09801667  0.13730000  1.0
  O2-  O76  1  0.28238000  0.59801667  0.13730000  1.0
  O2-  O77  1  0.28238000  0.09801667  0.13730000  1.0
  O2-  O78  1  0.08238000  0.59801667  0.13730000  1.0
  O2-  O79  1  0.08238000  0.09801667  0.13730000  1.0
  O2-  O80  1  0.97254000  0.59801667  0.58810000  1.0
  O2-  O81  1  0.97254000  0.09801667  0.58810000  1.0
  O2-  O82  1  0.77254000  0.59801667  0.58810000  1.0
  O2-  O83  1  0.77254000  0.09801667  0.58810000  1.0
  O2-  O84  1  0.57254000  0.59801667  0.58810000  1.0
  O2-  O85  1  0.57254000  0.09801667  0.58810000  1.0
  O2-  O86  1  0.37254000  0.59801667  0.58810000  1.0
  O2-  O87  1  0.37254000  0.09801667  0.58810000  1.0
  O2-  O88  1  0.17254000  0.59801667  0.58810000  1.0
  O2-  O89  1  0.17254000  0.09801667  0.58810000  1.0
  O2-  O90  1  0.97254000  0.59801667  0.13730000  1.0
  O2-  O91  1  0.97254000  0.09801667  0.13730000  1.0
  O2-  O92  1  0.77254000  0.59801667  0.13730000  1.0
  O2-  O93  1  0.77254000  0.09801667  0.13730000  1.0
  O2-  O94  1  0.57254000  0.59801667  0.13730000  1.0
  O2-  O95  1  0.57254000  0.09801667  0.13730000  1.0
  O2-  O96  1  0.37254000  0.59801667  0.13730000  1.0
  O2-  O97  1  0.37254000  0.09801667  0.13730000  1.0
  O2-  O98  1  0.17254000  0.59801667  0.13730000  1.0
  O2-  O99  1  0.17254000  0.09801667  0.13730000  1.0
  O2-  O100  1  0.87746000  0.58571667  0.61270000  1.0
  O2-  O101  1  0.87746000  0.08571667  0.61270000  1.0
  O2-  O102  1  0.67746000  0.58571667  0.61270000  1.0
  O2-  O103  1  0.67746000  0.08571667  0.61270000  1.0
  O2-  O104  1  0.47746000  0.58571667  0.61270000  1.0
  O2-  O105  1  0.47746000  0.08571667  0.61270000  1.0
  O2-  O106  1  0.27746000  0.58571667  0.61270000  1.0
  O2-  O107  1  0.27746000  0.08571667  0.61270000  1.0
  O2-  O108  1  0.07746000  0.58571667  0.61270000  1.0
  O2-  O109  1  0.07746000  0.08571667  0.61270000  1.0
  O2-  O110  1  0.96762000  0.36031667  0.61270000  1.0
  O2-  O111  1  0.96762000  0.86031667  0.61270000  1.0
  O2-  O112  1  0.76762000  0.36031667  0.61270000  1.0
  O2-  O113  1  0.76762000  0.86031667  0.61270000  1.0
  O2-  O114  1  0.56762000  0.36031667  0.61270000  1.0
  O2-  O115  1  0.56762000  0.86031667  0.61270000  1.0
  O2-  O116  1  0.36762000  0.36031667  0.61270000  1.0
  O2-  O117  1  0.36762000  0.86031667  0.61270000  1.0
  O2-  O118  1  0.16762000  0.36031667  0.61270000  1.0
  O2-  O119  1  0.16762000  0.86031667  0.61270000  1.0
  O2-  O120  1  0.87746000  0.36031667  0.16190000  1.0
  O2-  O121  1  0.87746000  0.86031667  0.16190000  1.0
  O2-  O122  1  0.67746000  0.36031667  0.16190000  1.0
  O2-  O123  1  0.67746000  0.86031667  0.16190000  1.0
  O2-  O124  1  0.47746000  0.36031667  0.16190000  1.0
  O2-  O125  1  0.47746000  0.86031667  0.16190000  1.0
  O2-  O126  1  0.27746000  0.36031667  0.16190000  1.0
  O2-  O127  1  0.27746000  0.86031667  0.16190000  1.0
  O2-  O128  1  0.07746000  0.36031667  0.16190000  1.0
  O2-  O129  1  0.07746000  0.86031667  0.16190000  1.0
  O2-  O130  1  0.87746000  0.36031667  0.61270000  1.0
  O2-  O131  1  0.87746000  0.86031667  0.61270000  1.0
  O2-  O132  1  0.67746000  0.36031667  0.61270000  1.0
  O2-  O133  1  0.67746000  0.86031667  0.61270000  1.0
  O2-  O134  1  0.47746000  0.36031667  0.61270000  1.0
  O2-  O135  1  0.47746000  0.86031667  0.61270000  1.0
  O2-  O136  1  0.27746000  0.36031667  0.61270000  1.0
  O2-  O137  1  0.27746000  0.86031667  0.61270000  1.0
  O2-  O138  1  0.07746000  0.36031667  0.61270000  1.0
  O2-  O139  1  0.07746000  0.86031667  0.61270000  1.0
