# generated using pymatgen
data_Li6MgTi8O20
_symmetry_space_group_name_H-M   'P 1'
_cell_length_a   11.83215920
_cell_length_b   29.58039798
_cell_length_c   5.91607960
_cell_angle_alpha   60.00000000
_cell_angle_beta   60.00000000
_cell_angle_gamma   60.00000000
_symmetry_Int_Tables_number   1
_chemical_formula_structural   Li6MgTi8O20
_chemical_formula_sum   'Li24 Mg4 Ti32 O80'
_cell_volume   1464.15490950
_cell_formula_units_Z   4
loop_
 _symmetry_equiv_pos_site_id
 _symmetry_equiv_pos_as_xyz
  1  'x, y, z'
loop_
 _atom_type_symbol
 _atom_type_oxidation_number
  Li+  1.0
  Mg2+  2.0
  Ti4+  4.0
  O2-  -2.0
loop_
 _atom_site_type_symbol
 _atom_site_label
 _atom_site_symmetry_multiplicity
 _atom_site_fract_x
 _atom_site_fract_y
 _atom_site_fract_z
 _atom_site_occupancy
  Li+  Li0  1  0.43750000  0.27500000  0.37500000  1.0
  Li+  Li0  1  0.93750000  0.27500000  0.37500000  1.0
  Li+  Li1  1  0.43750000  0.67500000  0.37500000  1.0
  Li+  Li1  1  0.93750000  0.67500000  0.37500000  1.0
  Li+  Li2  1  0.43750000  0.87500000  0.37500000  1.0
  Li+  Li2  1  0.93750000  0.87500000  0.37500000  1.0
  Li+  Li3  1  0.18750000  0.07500000  0.87500000  1.0
  Li+  Li3  1  0.68750000  0.07500000  0.87500000  1.0
  Li+  Li4  1  0.37500000  0.15000000  0.75000000  1.0
  Li+  Li4  1  0.87500000  0.15000000  0.75000000  1.0
  Li+  Li5  1  0.37500000  0.35000000  0.75000000  1.0
  Li+  Li5  1  0.87500000  0.35000000  0.75000000  1.0
  Li+  Li6  1  0.37500000  0.55000000  0.75000000  1.0
  Li+  Li6  1  0.87500000  0.55000000  0.75000000  1.0
  Li+  Li7  1  0.37500000  0.75000000  0.75000000  1.0
  Li+  Li7  1  0.87500000  0.75000000  0.75000000  1.0
  Li+  Li8  1  0.00000000  0.20000000  0.00000000  1.0
  Li+  Li8  1  0.50000000  0.20000000  0.00000000  1.0
  Li+  Li9  1  0.00000000  0.40000000  0.00000000  1.0
  Li+  Li9  1  0.50000000  0.40000000  0.00000000  1.0
  Li+  Li10  1  0.00000000  0.60000000  0.00000000  1.0
  Li+  Li10  1  0.50000000  0.60000000  0.00000000  1.0
  Li+  Li11  1  0.00000000  0.80000000  0.00000000  1.0
  Li+  Li11  1  0.50000000  0.80000000  0.00000000  1.0
  Mg2+  Mg12  1  0.37500000  0.95000000  0.75000000  1.0
  Mg2+  Mg12  1  0.87500000  0.95000000  0.75000000  1.0
  Mg2+  Mg13  1  0.00000000  0.00000000  0.00000000  1.0
  Mg2+  Mg13  1  0.50000000  0.00000000  0.00000000  1.0
  Ti4+  Ti14  1  0.43750000  0.07500000  0.37500000  1.0
  Ti4+  Ti14  1  0.93750000  0.07500000  0.37500000  1.0
  Ti4+  Ti15  1  0.43750000  0.47500000  0.37500000  1.0
  Ti4+  Ti15  1  0.93750000  0.47500000  0.37500000  1.0
  Ti4+  Ti16  1  0.18750000  0.17500000  0.37500000  1.0
  Ti4+  Ti16  1  0.68750000  0.17500000  0.37500000  1.0
  Ti4+  Ti17  1  0.18750000  0.37500000  0.37500000  1.0
  Ti4+  Ti17  1  0.68750000  0.37500000  0.37500000  1.0
  Ti4+  Ti18  1  0.18750000  0.57500000  0.37500000  1.0
  Ti4+  Ti18  1  0.68750000  0.57500000  0.37500000  1.0
  Ti4+  Ti19  1  0.18750000  0.77500000  0.37500000  1.0
  Ti4+  Ti19  1  0.68750000  0.77500000  0.37500000  1.0
  Ti4+  Ti20  1  0.18750000  0.97500000  0.37500000  1.0
  Ti4+  Ti20  1  0.68750000  0.97500000  0.37500000  1.0
  Ti4+  Ti21  1  0.18750000  0.27500000  0.87500000  1.0
  Ti4+  Ti21  1  0.68750000  0.27500000  0.87500000  1.0
  Ti4+  Ti22  1  0.18750000  0.47500000  0.87500000  1.0
  Ti4+  Ti22  1  0.68750000  0.47500000  0.87500000  1.0
  Ti4+  Ti23  1  0.18750000  0.67500000  0.87500000  1.0
  Ti4+  Ti23  1  0.68750000  0.67500000  0.87500000  1.0
  Ti4+  Ti24  1  0.18750000  0.87500000  0.87500000  1.0
  Ti4+  Ti24  1  0.68750000  0.87500000  0.87500000  1.0
  Ti4+  Ti25  1  0.18750000  0.07500000  0.37500000  1.0
  Ti4+  Ti25  1  0.68750000  0.07500000  0.37500000  1.0
  Ti4+  Ti26  1  0.18750000  0.27500000  0.37500000  1.0
  Ti4+  Ti26  1  0.68750000  0.27500000  0.37500000  1.0
  Ti4+  Ti27  1  0.18750000  0.47500000  0.37500000  1.0
  Ti4+  Ti27  1  0.68750000  0.47500000  0.37500000  1.0
  Ti4+  Ti28  1  0.18750000  0.67500000  0.37500000  1.0
  Ti4+  Ti28  1  0.68750000  0.67500000  0.37500000  1.0
  Ti4+  Ti29  1  0.18750000  0.87500000  0.37500000  1.0
  Ti4+  Ti29  1  0.68750000  0.87500000  0.37500000  1.0
  O2-  O1  1  0.29405000  0.02746000  0.13730000  1.0
  O2-  O1  1  0.79405000  0.02746000  0.13730000  1.0
  O2-  O1  1  0.29405000  0.22746000  0.13730000  1.0
  O2-  O1  1  0.79405000  0.22746000  0.13730000  1.0
  O2-  O1  1  0.29405000  0.42746000  0.13730000  1.0
  O2-  O1  1  0.79405000  0.42746000  0.13730000  1.0
  O2-  O1  1  0.29405000  0.62746000  0.13730000  1.0
  O2-  O1  1  0.79405000  0.62746000  0.13730000  1.0
  O2-  O1  1  0.29405000  0.82746000  0.13730000  1.0
  O2-  O1  1  0.79405000  0.82746000  0.13730000  1.0
  O2-  O1  1  0.06865000  0.11762000  0.13730000  1.0
  O2-  O1  1  0.56865000  0.11762000  0.13730000  1.0
  O2-  O1  1  0.06865000  0.31762000  0.13730000  1.0
  O2-  O1  1  0.56865000  0.31762000  0.13730000  1.0
  O2-  O1  1  0.06865000  0.51762000  0.13730000  1.0
  O2-  O1  1  0.56865000  0.51762000  0.13730000  1.0
  O2-  O1  1  0.06865000  0.71762000  0.13730000  1.0
  O2-  O1  1  0.56865000  0.71762000  0.13730000  1.0
  O2-  O1  1  0.06865000  0.91762000  0.13730000  1.0
  O2-  O1  1  0.56865000  0.91762000  0.13730000  1.0
  O2-  O1  1  0.06865000  0.02746000  0.58810000  1.0
  O2-  O1  1  0.56865000  0.02746000  0.58810000  1.0
  O2-  O1  1  0.06865000  0.22746000  0.58810000  1.0
  O2-  O1  1  0.56865000  0.22746000  0.58810000  1.0
  O2-  O1  1  0.06865000  0.42746000  0.58810000  1.0
  O2-  O1  1  0.56865000  0.42746000  0.58810000  1.0
  O2-  O1  1  0.06865000  0.62746000  0.58810000  1.0
  O2-  O1  1  0.56865000  0.62746000  0.58810000  1.0
  O2-  O1  1  0.06865000  0.82746000  0.58810000  1.0
  O2-  O1  1  0.56865000  0.82746000  0.58810000  1.0
  O2-  O1  1  0.06865000  0.02746000  0.13730000  1.0
  O2-  O1  1  0.56865000  0.02746000  0.13730000  1.0
  O2-  O1  1  0.06865000  0.22746000  0.13730000  1.0
  O2-  O1  1  0.56865000  0.22746000  0.13730000  1.0
  O2-  O1  1  0.06865000  0.42746000  0.13730000  1.0
  O2-  O1  1  0.56865000  0.42746000  0.13730000  1.0
  O2-  O1  1  0.06865000  0.62746000  0.13730000  1.0
  O2-  O1  1  0.56865000  0.62746000  0.13730000  1.0
  O2-  O1  1  0.06865000  0.82746000  0.13730000  1.0
  O2-  O1  1  0.56865000  0.82746000  0.13730000  1.0
  O2-  O1  1  0.08095000  0.12254000  0.61270000  1.0
  O2-  O1  1  0.58095000  0.12254000  0.61270000  1.0
  O2-  O1  1  0.08095000  0.32254000  0.61270000  1.0
  O2-  O1  1  0.58095000  0.32254000  0.61270000  1.0
  O2-  O1  1  0.08095000  0.52254000  0.61270000  1.0
  O2-  O1  1  0.58095000  0.52254000  0.61270000  1.0
  O2-  O1  1  0.08095000  0.72254000  0.61270000  1.0
  O2-  O1  1  0.58095000  0.72254000  0.61270000  1.0
  O2-  O1  1  0.08095000  0.92254000  0.61270000  1.0
  O2-  O1  1  0.58095000  0.92254000  0.61270000  1.0
  O2-  O1  1  0.30635000  0.03238000  0.61270000  1.0
  O2-  O1  1  0.80635000  0.03238000  0.61270000  1.0
  O2-  O1  1  0.30635000  0.23238000  0.61270000  1.0
  O2-  O1  1  0.80635000  0.23238000  0.61270000  1.0
  O2-  O1  1  0.30635000  0.43238000  0.61270000  1.0
  O2-  O1  1  0.80635000  0.43238000  0.61270000  1.0
  O2-  O1  1  0.30635000  0.63238000  0.61270000  1.0
  O2-  O1  1  0.80635000  0.63238000  0.61270000  1.0
  O2-  O1  1  0.30635000  0.83238000  0.61270000  1.0
  O2-  O1  1  0.80635000  0.83238000  0.61270000  1.0
  O2-  O1  1  0.30635000  0.12254000  0.16190000  1.0
  O2-  O1  1  0.80635000  0.12254000  0.16190000  1.0
  O2-  O1  1  0.30635000  0.32254000  0.16190000  1.0
  O2-  O1  1  0.80635000  0.32254000  0.16190000  1.0
  O2-  O1  1  0.30635000  0.52254000  0.16190000  1.0
  O2-  O1  1  0.80635000  0.52254000  0.16190000  1.0
  O2-  O1  1  0.30635000  0.72254000  0.16190000  1.0
  O2-  O1  1  0.80635000  0.72254000  0.16190000  1.0
  O2-  O1  1  0.30635000  0.92254000  0.16190000  1.0
  O2-  O1  1  0.80635000  0.92254000  0.16190000  1.0
  O2-  O1  1  0.30635000  0.12254000  0.61270000  1.0
  O2-  O1  1  0.80635000  0.12254000  0.61270000  1.0
  O2-  O1  1  0.30635000  0.32254000  0.61270000  1.0
  O2-  O1  1  0.80635000  0.32254000  0.61270000  1.0
  O2-  O1  1  0.30635000  0.52254000  0.61270000  1.0
  O2-  O1  1  0.80635000  0.52254000  0.61270000  1.0
  O2-  O1  1  0.30635000  0.72254000  0.61270000  1.0
  O2-  O1  1  0.80635000  0.72254000  0.61270000  1.0
  O2-  O1  1  0.30635000  0.92254000  0.61270000  1.0
  O2-  O1  1  0.80635000  0.92254000  0.61270000  1.0
