# generated using pymatgen
data_Li40Ge4SbP7S48
_symmetry_space_group_name_H-M   'P 1'
_cell_length_a   17.42660000
_cell_length_b   12.65150000
_cell_length_c   17.42660000
_cell_angle_alpha   90.00000000
_cell_angle_beta   90.00000000
_cell_angle_gamma   90.00000000
_symmetry_Int_Tables_number   1
_chemical_formula_structural   Li40Ge4SbP7S48
_chemical_formula_sum   'Li80 Ge8 Sb2 P14 S96'
_cell_volume   3842.08833222
_cell_formula_units_Z   2
loop_
 _symmetry_equiv_pos_site_id
 _symmetry_equiv_pos_as_xyz
  1  'x, y, z'
loop_
 _atom_type_symbol
 _atom_type_oxidation_number
  Li+  1.0
  Ge4+  4.0
  Sb5+  5.0
  P5+  5.0
  S2-  -2.0
loop_
 _atom_site_type_symbol
 _atom_site_label
 _atom_site_symmetry_multiplicity
 _atom_site_fract_x
 _atom_site_fract_y
 _atom_site_fract_z
 _atom_site_occupancy
  Li+  Li0  1  0.24350000  0.28850000  0.73770000  1.0
  Li+  Li1  1  0.24361312  0.28445162  0.24072695  1.0
  Li+  Li2  1  0.74350000  0.28850000  0.73770000  1.0
  Li+  Li3  1  0.00650000  0.28850000  0.01230000  1.0
  Li+  Li4  1  0.50650000  0.28850000  0.51230000  1.0
  Li+  Li5  1  0.76001282  0.20905526  0.99524897  1.0
  Li+  Li6  1  0.01230000  0.78850000  0.24350000  1.0
  Li+  Li7  1  0.24350000  0.28850000  0.01230000  1.0
  Li+  Li8  1  0.74350000  0.28850000  0.01230000  1.0
  Li+  Li9  1  0.25621678  0.71190950  0.49275860  1.0
  Li+  Li10  1  0.75650000  0.71150000  0.48770000  1.0
  Li+  Li11  1  0.75650000  0.71150000  0.98770000  1.0
  Li+  Li12  1  0.50650000  0.28850000  0.73770000  1.0
  Li+  Li13  1  0.50669751  0.29072774  0.23651003  1.0
  Li+  Li14  1  0.99350000  0.71150000  0.76230000  1.0
  Li+  Li15  1  0.23770000  0.78850000  0.24350000  1.0
  Li+  Li16  1  0.26230000  0.21150000  0.25650000  1.0
  Li+  Li17  1  0.01230000  0.78850000  0.50650000  1.0
  Li+  Li18  1  0.01230000  0.78850000  0.00650000  1.0
  Li+  Li19  1  0.51008340  0.78959797  0.50192226  1.0
  Li+  Li20  1  0.51668182  0.78900842  0.00882211  1.0
  Li+  Li21  1  0.48902451  0.21333661  0.99340952  1.0
  Li+  Li22  1  0.98915241  0.21004764  0.49776328  1.0
  Li+  Li23  1  0.25125000  0.56190000  0.24125000  1.0
  Li+  Li24  1  0.75125000  0.56190000  0.74125000  1.0
  Li+  Li25  1  0.24875000  0.43810000  0.75875000  1.0
  Li+  Li26  1  0.74875000  0.43810000  0.25875000  1.0
  Li+  Li27  1  0.74623066  0.43444643  0.75634185  1.0
  Li+  Li28  1  0.49875000  0.56190000  0.50875000  1.0
  Li+  Li29  1  0.49875000  0.56190000  0.00875000  1.0
  Li+  Li30  1  0.99875000  0.56190000  0.50875000  1.0
  Li+  Li31  1  0.99753605  0.44220494  0.49464998  1.0
  Li+  Li32  1  0.00125000  0.43810000  0.99125000  1.0
  Li+  Li33  1  0.50125000  0.43810000  0.49125000  1.0
  Li+  Li34  1  0.25875000  0.93810000  0.50125000  1.0
  Li+  Li35  1  0.75875000  0.93810000  0.50125000  1.0
  Li+  Li36  1  0.00875000  0.06190000  0.25125000  1.0
  Li+  Li37  1  0.00959402  0.05880863  0.74746494  1.0
  Li+  Li38  1  0.50875000  0.06190000  0.25125000  1.0
  Li+  Li39  1  0.50875000  0.06190000  0.75125000  1.0
  Li+  Li40  1  0.98854562  0.93682299  0.24683363  1.0
  Li+  Li41  1  0.24479146  0.44072179  0.49197796  1.0
  Li+  Li42  1  0.25125000  0.56190000  0.00875000  1.0
  Li+  Li43  1  0.75125000  0.56190000  0.00875000  1.0
  Li+  Li44  1  0.00125000  0.43810000  0.25875000  1.0
  Li+  Li45  1  0.00125000  0.43810000  0.75875000  1.0
  Li+  Li46  1  0.25875000  0.93810000  0.74875000  1.0
  Li+  Li47  1  0.25875000  0.93810000  0.24875000  1.0
  Li+  Li48  1  0.24125000  0.06190000  0.75125000  1.0
  Li+  Li49  1  0.49125000  0.93810000  0.00125000  1.0
  Li+  Li50  1  0.99125000  0.93810000  0.50125000  1.0
  Li+  Li51  1  0.00875000  0.06190000  0.49875000  1.0
  Li+  Li52  1  0.50875000  0.06190000  0.49875000  1.0
  Li+  Li53  1  0.12500000  0.50090000  0.87500000  1.0
  Li+  Li54  1  0.62500000  0.50090000  0.37500000  1.0
  Li+  Li55  1  0.62532832  0.50473065  0.87397171  1.0
  Li+  Li56  1  0.37500000  0.49910000  0.62500000  1.0
  Li+  Li57  1  0.37227325  0.50364150  0.12238698  1.0
  Li+  Li58  1  0.87500000  0.49910000  0.62500000  1.0
  Li+  Li59  1  0.37554071  0.00024654  0.62957517  1.0
  Li+  Li60  1  0.37549394  0.99837773  0.12635870  1.0
  Li+  Li61  1  0.87434311  0.00181743  0.12289654  1.0
  Li+  Li62  1  0.12819663  0.99788592  0.87396362  1.0
  Li+  Li63  1  0.62500000  0.99910000  0.37500000  1.0
  Li+  Li64  1  0.62500000  0.99910000  0.87500000  1.0
  Li+  Li65  1  0.12600669  0.80273669  0.62046483  1.0
  Li+  Li66  1  0.12500000  0.80510000  0.12500000  1.0
  Li+  Li67  1  0.62500000  0.80510000  0.62500000  1.0
  Li+  Li68  1  0.62500000  0.80510000  0.12500000  1.0
  Li+  Li69  1  0.37285067  0.19725213  0.37295746  1.0
  Li+  Li70  1  0.37500000  0.19490000  0.87500000  1.0
  Li+  Li71  1  0.87658154  0.19767628  0.37784272  1.0
  Li+  Li72  1  0.87500000  0.19490000  0.87500000  1.0
  Li+  Li73  1  0.12500000  0.30510000  0.62500000  1.0
  Li+  Li74  1  0.12500000  0.30510000  0.12500000  1.0
  Li+  Li75  1  0.62500000  0.30510000  0.62500000  1.0
  Li+  Li76  1  0.62500000  0.30510000  0.12500000  1.0
  Li+  Li77  1  0.37500000  0.69490000  0.37500000  1.0
  Li+  Li78  1  0.37287079  0.69365653  0.87749428  1.0
  Li+  Li79  1  0.87500000  0.69490000  0.87500000  1.0
  Ge4+  Ge80  1  0.12500000  0.05904000  0.62500000  1.0
  Ge4+  Ge81  1  0.62500000  0.05904000  0.62500000  1.0
  Ge4+  Ge82  1  0.37500000  0.94096000  0.37500000  1.0
  Ge4+  Ge83  1  0.37500000  0.94096000  0.87500000  1.0
  Ge4+  Ge84  1  0.87500000  0.94096000  0.37500000  1.0
  Ge4+  Ge85  1  0.12500000  0.55904000  0.62500000  1.0
  Ge4+  Ge86  1  0.12500000  0.55904000  0.12500000  1.0
  Ge4+  Ge87  1  0.37500000  0.44096000  0.37500000  1.0
  Sb5+  Sb88  1  0.62500000  0.05904000  0.12500000  1.0
  Sb5+  Sb89  1  0.62500000  0.55904000  0.12500000  1.0
  P5+  P90  1  0.12500000  0.05904000  0.12500000  1.0
  P5+  P91  1  0.87500000  0.94096000  0.87500000  1.0
  P5+  P92  1  0.62500000  0.55904000  0.62500000  1.0
  P5+  P93  1  0.37500000  0.44096000  0.87500000  1.0
  P5+  P94  1  0.87500000  0.44096000  0.37500000  1.0
  P5+  P95  1  0.87500000  0.44096000  0.87500000  1.0
  P5+  P96  1  0.12500000  0.25000000  0.37500000  1.0
  P5+  P97  1  0.12556592  0.25023388  0.87590104  1.0
  P5+  P98  1  0.62500000  0.25000000  0.37500000  1.0
  P5+  P99  1  0.62500000  0.25000000  0.87500000  1.0
  P5+  P100  1  0.37500000  0.75000000  0.62500000  1.0
  P5+  P101  1  0.37500000  0.75000000  0.12500000  1.0
  P5+  P102  1  0.87500000  0.75000000  0.62500000  1.0
  P5+  P103  1  0.87834439  0.75177906  0.12405902  1.0
  S2-  S104  1  0.12500000  0.34231000  0.28110000  1.0
  S2-  S105  1  0.12500000  0.34231000  0.78110000  1.0
  S2-  S106  1  0.62566051  0.34039879  0.28159847  1.0
  S2-  S107  1  0.62500000  0.34231000  0.78110000  1.0
  S2-  S108  1  0.37500000  0.65769000  0.71890000  1.0
  S2-  S109  1  0.37500000  0.65769000  0.21890000  1.0
  S2-  S110  1  0.87500000  0.65769000  0.71890000  1.0
  S2-  S111  1  0.87500000  0.65769000  0.21890000  1.0
  S2-  S112  1  0.12500000  0.34231000  0.46890000  1.0
  S2-  S113  1  0.12500000  0.34231000  0.96890000  1.0
  S2-  S114  1  0.62500000  0.34231000  0.46890000  1.0
  S2-  S115  1  0.62500000  0.34231000  0.96890000  1.0
  S2-  S116  1  0.37500000  0.65769000  0.53110000  1.0
  S2-  S117  1  0.37500000  0.65769000  0.03110000  1.0
  S2-  S118  1  0.87500000  0.65769000  0.53110000  1.0
  S2-  S119  1  0.87500000  0.65769000  0.03110000  1.0
  S2-  S120  1  0.28110000  0.84231000  0.62500000  1.0
  S2-  S121  1  0.28110000  0.84231000  0.12500000  1.0
  S2-  S122  1  0.78439272  0.84705872  0.62080792  1.0
  S2-  S123  1  0.78110000  0.84231000  0.12500000  1.0
  S2-  S124  1  0.21890000  0.15769000  0.37500000  1.0
  S2-  S125  1  0.21890000  0.15769000  0.87500000  1.0
  S2-  S126  1  0.71890000  0.15769000  0.37500000  1.0
  S2-  S127  1  0.71890000  0.15769000  0.87500000  1.0
  S2-  S128  1  0.46890000  0.84231000  0.62500000  1.0
  S2-  S129  1  0.46830877  0.84011591  0.12340278  1.0
  S2-  S130  1  0.96721027  0.84075814  0.62305358  1.0
  S2-  S131  1  0.96890000  0.84231000  0.12500000  1.0
  S2-  S132  1  0.03110000  0.15769000  0.37500000  1.0
  S2-  S133  1  0.03110000  0.15769000  0.87500000  1.0
  S2-  S134  1  0.53110000  0.15769000  0.37500000  1.0
  S2-  S135  1  0.53110000  0.15769000  0.87500000  1.0
  S2-  S136  1  0.12593037  0.65414139  0.72829709  1.0
  S2-  S137  1  0.12500000  0.65362000  0.22815000  1.0
  S2-  S138  1  0.62500000  0.65362000  0.72815000  1.0
  S2-  S139  1  0.62500000  0.65362000  0.22815000  1.0
  S2-  S140  1  0.37240707  0.35128517  0.27313444  1.0
  S2-  S141  1  0.37500000  0.34638000  0.77185000  1.0
  S2-  S142  1  0.87500000  0.34638000  0.27185000  1.0
  S2-  S143  1  0.87795188  0.34732054  0.76970956  1.0
  S2-  S144  1  0.12706122  0.65716927  0.52145352  1.0
  S2-  S145  1  0.12500000  0.65362000  0.02185000  1.0
  S2-  S146  1  0.62369392  0.65678539  0.52087486  1.0
  S2-  S147  1  0.62934952  0.65541473  0.02248694  1.0
  S2-  S148  1  0.37500000  0.34638000  0.47815000  1.0
  S2-  S149  1  0.37500000  0.34638000  0.97815000  1.0
  S2-  S150  1  0.87500000  0.34638000  0.47815000  1.0
  S2-  S151  1  0.87329896  0.34638300  0.97657857  1.0
  S2-  S152  1  0.22815000  0.15362000  0.62500000  1.0
  S2-  S153  1  0.22815000  0.15362000  0.12500000  1.0
  S2-  S154  1  0.72815000  0.15362000  0.62500000  1.0
  S2-  S155  1  0.72815000  0.15362000  0.12500000  1.0
  S2-  S156  1  0.27024718  0.84710138  0.37428172  1.0
  S2-  S157  1  0.27185000  0.84638000  0.87500000  1.0
  S2-  S158  1  0.77185000  0.84638000  0.37500000  1.0
  S2-  S159  1  0.77185000  0.84638000  0.87500000  1.0
  S2-  S160  1  0.02185000  0.15362000  0.62500000  1.0
  S2-  S161  1  0.02358446  0.14874192  0.12619160  1.0
  S2-  S162  1  0.51980997  0.15416406  0.62776629  1.0
  S2-  S163  1  0.52185000  0.15362000  0.12500000  1.0
  S2-  S164  1  0.47815000  0.84638000  0.37500000  1.0
  S2-  S165  1  0.47815000  0.84638000  0.87500000  1.0
  S2-  S166  1  0.97815000  0.84638000  0.37500000  1.0
  S2-  S167  1  0.97815000  0.84638000  0.87500000  1.0
  S2-  S168  1  0.12500000  0.95889000  0.52525000  1.0
  S2-  S169  1  0.12500000  0.95889000  0.02525000  1.0
  S2-  S170  1  0.62764155  0.95718820  0.52552850  1.0
  S2-  S171  1  0.62500000  0.95889000  0.02525000  1.0
  S2-  S172  1  0.37500000  0.04111000  0.47475000  1.0
  S2-  S173  1  0.37588553  0.03999888  0.97350685  1.0
  S2-  S174  1  0.87500000  0.04111000  0.47475000  1.0
  S2-  S175  1  0.87946841  0.04101133  0.97487231  1.0
  S2-  S176  1  0.12507768  0.96419156  0.72192254  1.0
  S2-  S177  1  0.12500000  0.95889000  0.22475000  1.0
  S2-  S178  1  0.62247863  0.96014516  0.72671369  1.0
  S2-  S179  1  0.62500000  0.95889000  0.22475000  1.0
  S2-  S180  1  0.38228329  0.04264841  0.27581005  1.0
  S2-  S181  1  0.37500000  0.04111000  0.77525000  1.0
  S2-  S182  1  0.87500000  0.04111000  0.27525000  1.0
  S2-  S183  1  0.87500000  0.04111000  0.77525000  1.0
  S2-  S184  1  0.02525000  0.45889000  0.62500000  1.0
  S2-  S185  1  0.02525000  0.45889000  0.12500000  1.0
  S2-  S186  1  0.52525000  0.45889000  0.62500000  1.0
  S2-  S187  1  0.52661576  0.46163738  0.12737560  1.0
  S2-  S188  1  0.47113360  0.54282239  0.37468770  1.0
  S2-  S189  1  0.47475000  0.54111000  0.87500000  1.0
  S2-  S190  1  0.97475000  0.54111000  0.37500000  1.0
  S2-  S191  1  0.97694257  0.53875253  0.87224471  1.0
  S2-  S192  1  0.22475000  0.45889000  0.62500000  1.0
  S2-  S193  1  0.22475000  0.45889000  0.12500000  1.0
  S2-  S194  1  0.72983380  0.45952835  0.62297478  1.0
  S2-  S195  1  0.72475000  0.45889000  0.12500000  1.0
  S2-  S196  1  0.27525000  0.54111000  0.37500000  1.0
  S2-  S197  1  0.27525000  0.54111000  0.87500000  1.0
  S2-  S198  1  0.77525000  0.54111000  0.37500000  1.0
  S2-  S199  1  0.77562733  0.54022164  0.87490509  1.0
