# generated using pymatgen
data_Li40Ge4SbP7S48
_symmetry_space_group_name_H-M   'P 1'
_cell_length_a   17.42660000
_cell_length_b   17.42660000
_cell_length_c   12.65150000
_cell_angle_alpha   90.00000000
_cell_angle_beta   90.00000000
_cell_angle_gamma   90.00000000
_symmetry_Int_Tables_number   1
_chemical_formula_structural   Li40Ge4SbP7S48
_chemical_formula_sum   'Li80 Ge8 Sb2 P14 S96'
_cell_volume   3842.08833222
_cell_formula_units_Z   2
loop_
 _symmetry_equiv_pos_site_id
 _symmetry_equiv_pos_as_xyz
  1  'x, y, z'
loop_
 _atom_type_symbol
 _atom_type_oxidation_number
  Li+  1.0
  Ge4+  4.0
  Sb5+  5.0
  P5+  5.0
  S2-  -2.0
loop_
 _atom_site_type_symbol
 _atom_site_label
 _atom_site_symmetry_multiplicity
 _atom_site_fract_x
 _atom_site_fract_y
 _atom_site_fract_z
 _atom_site_occupancy
  Li+  Li0  1  0.24350000  0.01230000  0.71150000  1.0
  Li+  Li1  1  0.24350000  0.51230000  0.71150000  1.0
  Li+  Li2  1  0.74350000  0.01230000  0.71150000  1.0
  Li+  Li3  1  0.00650000  0.73770000  0.71150000  1.0
  Li+  Li4  1  0.50650000  0.23770000  0.71150000  1.0
  Li+  Li5  1  0.76230000  0.75650000  0.78850000  1.0
  Li+  Li6  1  0.01230000  0.50650000  0.21150000  1.0
  Li+  Li7  1  0.24350000  0.73770000  0.71150000  1.0
  Li+  Li8  1  0.74350000  0.73770000  0.71150000  1.0
  Li+  Li9  1  0.25650000  0.26230000  0.28850000  1.0
  Li+  Li10  1  0.75650000  0.26230000  0.28850000  1.0
  Li+  Li11  1  0.75650000  0.76230000  0.28850000  1.0
  Li+  Li12  1  0.50650000  0.01230000  0.71150000  1.0
  Li+  Li13  1  0.50650000  0.51230000  0.71150000  1.0
  Li+  Li14  1  0.99350000  0.98770000  0.28850000  1.0
  Li+  Li15  1  0.23770000  0.50650000  0.21150000  1.0
  Li+  Li16  1  0.26230000  0.49350000  0.78850000  1.0
  Li+  Li17  1  0.01230000  0.24350000  0.21150000  1.0
  Li+  Li18  1  0.01230000  0.74350000  0.21150000  1.0
  Li+  Li19  1  0.51230000  0.24350000  0.21150000  1.0
  Li+  Li20  1  0.51230000  0.74350000  0.21150000  1.0
  Li+  Li21  1  0.48770000  0.75650000  0.78850000  1.0
  Li+  Li22  1  0.98770000  0.25650000  0.78850000  1.0
  Li+  Li23  1  0.25125000  0.50875000  0.43810000  1.0
  Li+  Li24  1  0.75125000  0.00875000  0.43810000  1.0
  Li+  Li25  1  0.24875000  0.99125000  0.56190000  1.0
  Li+  Li26  1  0.74875000  0.49125000  0.56190000  1.0
  Li+  Li27  1  0.74875000  0.99125000  0.56190000  1.0
  Li+  Li28  1  0.49875000  0.24125000  0.43810000  1.0
  Li+  Li29  1  0.49875000  0.74125000  0.43810000  1.0
  Li+  Li30  1  0.99875000  0.24125000  0.43810000  1.0
  Li+  Li31  1  0.00125000  0.25875000  0.56190000  1.0
  Li+  Li32  1  0.00125000  0.75875000  0.56190000  1.0
  Li+  Li33  1  0.50125000  0.25875000  0.56190000  1.0
  Li+  Li34  1  0.25875000  0.24875000  0.06190000  1.0
  Li+  Li35  1  0.75875000  0.24875000  0.06190000  1.0
  Li+  Li36  1  0.00875000  0.49875000  0.93810000  1.0
  Li+  Li37  1  0.00875000  0.99875000  0.93810000  1.0
  Li+  Li38  1  0.50875000  0.49875000  0.93810000  1.0
  Li+  Li39  1  0.50875000  0.99875000  0.93810000  1.0
  Li+  Li40  1  0.99125000  0.50125000  0.06190000  1.0
  Li+  Li41  1  0.24875000  0.25875000  0.56190000  1.0
  Li+  Li42  1  0.25125000  0.74125000  0.43810000  1.0
  Li+  Li43  1  0.75125000  0.74125000  0.43810000  1.0
  Li+  Li44  1  0.00125000  0.49125000  0.56190000  1.0
  Li+  Li45  1  0.00125000  0.99125000  0.56190000  1.0
  Li+  Li46  1  0.25875000  0.00125000  0.06190000  1.0
  Li+  Li47  1  0.25875000  0.50125000  0.06190000  1.0
  Li+  Li48  1  0.24125000  0.99875000  0.93810000  1.0
  Li+  Li49  1  0.49125000  0.74875000  0.06190000  1.0
  Li+  Li50  1  0.99125000  0.24875000  0.06190000  1.0
  Li+  Li51  1  0.00875000  0.25125000  0.93810000  1.0
  Li+  Li52  1  0.50875000  0.25125000  0.93810000  1.0
  Li+  Li53  1  0.12500000  0.87500000  0.49910000  1.0
  Li+  Li54  1  0.62500000  0.37500000  0.49910000  1.0
  Li+  Li55  1  0.62500000  0.87500000  0.49910000  1.0
  Li+  Li56  1  0.37500000  0.12500000  0.50090000  1.0
  Li+  Li57  1  0.37500000  0.62500000  0.50090000  1.0
  Li+  Li58  1  0.87500000  0.12500000  0.50090000  1.0
  Li+  Li59  1  0.37500000  0.12500000  0.99910000  1.0
  Li+  Li60  1  0.37500000  0.62500000  0.99910000  1.0
  Li+  Li61  1  0.87500000  0.62500000  0.99910000  1.0
  Li+  Li62  1  0.12500000  0.87500000  0.00090000  1.0
  Li+  Li63  1  0.62500000  0.37500000  0.00090000  1.0
  Li+  Li64  1  0.62500000  0.87500000  0.00090000  1.0
  Li+  Li65  1  0.12500000  0.12500000  0.19490000  1.0
  Li+  Li66  1  0.12500000  0.62500000  0.19490000  1.0
  Li+  Li67  1  0.62500000  0.12500000  0.19490000  1.0
  Li+  Li68  1  0.62500000  0.62500000  0.19490000  1.0
  Li+  Li69  1  0.37500000  0.37500000  0.80510000  1.0
  Li+  Li70  1  0.37500000  0.87500000  0.80510000  1.0
  Li+  Li71  1  0.87500000  0.37500000  0.80510000  1.0
  Li+  Li72  1  0.87500000  0.87500000  0.80510000  1.0
  Li+  Li73  1  0.12500000  0.12500000  0.69490000  1.0
  Li+  Li74  1  0.12500000  0.62500000  0.69490000  1.0
  Li+  Li75  1  0.62500000  0.12500000  0.69490000  1.0
  Li+  Li76  1  0.62500000  0.62500000  0.69490000  1.0
  Li+  Li77  1  0.37500000  0.37500000  0.30510000  1.0
  Li+  Li78  1  0.37500000  0.87500000  0.30510000  1.0
  Li+  Li79  1  0.87500000  0.87500000  0.30510000  1.0
  Ge4+  Ge80  1  0.12500000  0.12500000  0.94096000  1.0
  Ge4+  Ge81  1  0.62500000  0.12500000  0.94096000  1.0
  Ge4+  Ge82  1  0.37500000  0.37500000  0.05904000  1.0
  Ge4+  Ge83  1  0.37500000  0.87500000  0.05904000  1.0
  Ge4+  Ge84  1  0.87500000  0.37500000  0.05904000  1.0
  Ge4+  Ge85  1  0.12500000  0.12500000  0.44096000  1.0
  Ge4+  Ge86  1  0.12500000  0.62500000  0.44096000  1.0
  Ge4+  Ge87  1  0.37500000  0.37500000  0.55904000  1.0
  Sb5+  Sb88  1  0.62500000  0.62500000  0.94096000  1.0
  Sb5+  Sb89  1  0.62500000  0.62500000  0.44096000  1.0
  P5+  P90  1  0.12500000  0.62500000  0.94096000  1.0
  P5+  P91  1  0.87500000  0.87500000  0.05904000  1.0
  P5+  P92  1  0.62500000  0.12500000  0.44096000  1.0
  P5+  P93  1  0.37500000  0.87500000  0.55904000  1.0
  P5+  P94  1  0.87500000  0.37500000  0.55904000  1.0
  P5+  P95  1  0.87500000  0.87500000  0.55904000  1.0
  P5+  P2  1  0.12500000  0.37500000  0.75000000  1.0
  P5+  P2  1  0.12500000  0.87500000  0.75000000  1.0
  P5+  P2  1  0.62500000  0.37500000  0.75000000  1.0
  P5+  P2  1  0.62500000  0.87500000  0.75000000  1.0
  P5+  P2  1  0.37500000  0.12500000  0.25000000  1.0
  P5+  P2  1  0.37500000  0.62500000  0.25000000  1.0
  P5+  P2  1  0.87500000  0.12500000  0.25000000  1.0
  P5+  P2  1  0.87500000  0.62500000  0.25000000  1.0
  S2-  S1  1  0.12500000  0.46890000  0.65769000  1.0
  S2-  S1  1  0.12500000  0.96890000  0.65769000  1.0
  S2-  S1  1  0.62500000  0.46890000  0.65769000  1.0
  S2-  S1  1  0.62500000  0.96890000  0.65769000  1.0
  S2-  S1  1  0.37500000  0.03110000  0.34231000  1.0
  S2-  S1  1  0.37500000  0.53110000  0.34231000  1.0
  S2-  S1  1  0.87500000  0.03110000  0.34231000  1.0
  S2-  S1  1  0.87500000  0.53110000  0.34231000  1.0
  S2-  S1  1  0.12500000  0.28110000  0.65769000  1.0
  S2-  S1  1  0.12500000  0.78110000  0.65769000  1.0
  S2-  S1  1  0.62500000  0.28110000  0.65769000  1.0
  S2-  S1  1  0.62500000  0.78110000  0.65769000  1.0
  S2-  S1  1  0.37500000  0.21890000  0.34231000  1.0
  S2-  S1  1  0.37500000  0.71890000  0.34231000  1.0
  S2-  S1  1  0.87500000  0.21890000  0.34231000  1.0
  S2-  S1  1  0.87500000  0.71890000  0.34231000  1.0
  S2-  S1  1  0.28110000  0.12500000  0.15769000  1.0
  S2-  S1  1  0.28110000  0.62500000  0.15769000  1.0
  S2-  S1  1  0.78110000  0.12500000  0.15769000  1.0
  S2-  S1  1  0.78110000  0.62500000  0.15769000  1.0
  S2-  S1  1  0.21890000  0.37500000  0.84231000  1.0
  S2-  S1  1  0.21890000  0.87500000  0.84231000  1.0
  S2-  S1  1  0.71890000  0.37500000  0.84231000  1.0
  S2-  S1  1  0.71890000  0.87500000  0.84231000  1.0
  S2-  S1  1  0.46890000  0.12500000  0.15769000  1.0
  S2-  S1  1  0.46890000  0.62500000  0.15769000  1.0
  S2-  S1  1  0.96890000  0.12500000  0.15769000  1.0
  S2-  S1  1  0.96890000  0.62500000  0.15769000  1.0
  S2-  S1  1  0.03110000  0.37500000  0.84231000  1.0
  S2-  S1  1  0.03110000  0.87500000  0.84231000  1.0
  S2-  S1  1  0.53110000  0.37500000  0.84231000  1.0
  S2-  S1  1  0.53110000  0.87500000  0.84231000  1.0
  S2-  S2  1  0.12500000  0.02185000  0.34638000  1.0
  S2-  S2  1  0.12500000  0.52185000  0.34638000  1.0
  S2-  S2  1  0.62500000  0.02185000  0.34638000  1.0
  S2-  S2  1  0.62500000  0.52185000  0.34638000  1.0
  S2-  S2  1  0.37500000  0.47815000  0.65362000  1.0
  S2-  S2  1  0.37500000  0.97815000  0.65362000  1.0
  S2-  S2  1  0.87500000  0.47815000  0.65362000  1.0
  S2-  S2  1  0.87500000  0.97815000  0.65362000  1.0
  S2-  S2  1  0.12500000  0.22815000  0.34638000  1.0
  S2-  S2  1  0.12500000  0.72815000  0.34638000  1.0
  S2-  S2  1  0.62500000  0.22815000  0.34638000  1.0
  S2-  S2  1  0.62500000  0.72815000  0.34638000  1.0
  S2-  S2  1  0.37500000  0.27185000  0.65362000  1.0
  S2-  S2  1  0.37500000  0.77185000  0.65362000  1.0
  S2-  S2  1  0.87500000  0.27185000  0.65362000  1.0
  S2-  S2  1  0.87500000  0.77185000  0.65362000  1.0
  S2-  S2  1  0.22815000  0.12500000  0.84638000  1.0
  S2-  S2  1  0.22815000  0.62500000  0.84638000  1.0
  S2-  S2  1  0.72815000  0.12500000  0.84638000  1.0
  S2-  S2  1  0.72815000  0.62500000  0.84638000  1.0
  S2-  S2  1  0.27185000  0.37500000  0.15362000  1.0
  S2-  S2  1  0.27185000  0.87500000  0.15362000  1.0
  S2-  S2  1  0.77185000  0.37500000  0.15362000  1.0
  S2-  S2  1  0.77185000  0.87500000  0.15362000  1.0
  S2-  S2  1  0.02185000  0.12500000  0.84638000  1.0
  S2-  S2  1  0.02185000  0.62500000  0.84638000  1.0
  S2-  S2  1  0.52185000  0.12500000  0.84638000  1.0
  S2-  S2  1  0.52185000  0.62500000  0.84638000  1.0
  S2-  S2  1  0.47815000  0.37500000  0.15362000  1.0
  S2-  S2  1  0.47815000  0.87500000  0.15362000  1.0
  S2-  S2  1  0.97815000  0.37500000  0.15362000  1.0
  S2-  S2  1  0.97815000  0.87500000  0.15362000  1.0
  S2-  S3  1  0.12500000  0.22475000  0.04111000  1.0
  S2-  S3  1  0.12500000  0.72475000  0.04111000  1.0
  S2-  S3  1  0.62500000  0.22475000  0.04111000  1.0
  S2-  S3  1  0.62500000  0.72475000  0.04111000  1.0
  S2-  S3  1  0.37500000  0.27525000  0.95889000  1.0
  S2-  S3  1  0.37500000  0.77525000  0.95889000  1.0
  S2-  S3  1  0.87500000  0.27525000  0.95889000  1.0
  S2-  S3  1  0.87500000  0.77525000  0.95889000  1.0
  S2-  S3  1  0.12500000  0.02525000  0.04111000  1.0
  S2-  S3  1  0.12500000  0.52525000  0.04111000  1.0
  S2-  S3  1  0.62500000  0.02525000  0.04111000  1.0
  S2-  S3  1  0.62500000  0.52525000  0.04111000  1.0
  S2-  S3  1  0.37500000  0.47475000  0.95889000  1.0
  S2-  S3  1  0.37500000  0.97475000  0.95889000  1.0
  S2-  S3  1  0.87500000  0.47475000  0.95889000  1.0
  S2-  S3  1  0.87500000  0.97475000  0.95889000  1.0
  S2-  S3  1  0.02525000  0.12500000  0.54111000  1.0
  S2-  S3  1  0.02525000  0.62500000  0.54111000  1.0
  S2-  S3  1  0.52525000  0.12500000  0.54111000  1.0
  S2-  S3  1  0.52525000  0.62500000  0.54111000  1.0
  S2-  S3  1  0.47475000  0.37500000  0.45889000  1.0
  S2-  S3  1  0.47475000  0.87500000  0.45889000  1.0
  S2-  S3  1  0.97475000  0.37500000  0.45889000  1.0
  S2-  S3  1  0.97475000  0.87500000  0.45889000  1.0
  S2-  S3  1  0.22475000  0.12500000  0.54111000  1.0
  S2-  S3  1  0.22475000  0.62500000  0.54111000  1.0
  S2-  S3  1  0.72475000  0.12500000  0.54111000  1.0
  S2-  S3  1  0.72475000  0.62500000  0.54111000  1.0
  S2-  S3  1  0.27525000  0.37500000  0.45889000  1.0
  S2-  S3  1  0.27525000  0.87500000  0.45889000  1.0
  S2-  S3  1  0.77525000  0.37500000  0.45889000  1.0
  S2-  S3  1  0.77525000  0.87500000  0.45889000  1.0
