# generated using pymatgen
data_Li8SnGeS8
_symmetry_space_group_name_H-M   'P 1'
_cell_length_a   12.47980000
_cell_length_b   15.62160000
_cell_length_c   14.17680000
_cell_angle_alpha   90.00000000
_cell_angle_beta   90.00000000
_cell_angle_gamma   90.00000000
_symmetry_Int_Tables_number   1
_chemical_formula_structural   Li8SnGeS8
_chemical_formula_sum   'Li64 Sn8 Ge8 S64'
_cell_volume   2763.83015716
_cell_formula_units_Z   8
loop_
 _symmetry_equiv_pos_site_id
 _symmetry_equiv_pos_as_xyz
  1  'x, y, z'
loop_
 _atom_type_symbol
 _atom_type_oxidation_number
  Li+  1.0
  Sn4+  4.0
  Ge4+  4.0
  S2-  -2.0
loop_
 _atom_site_type_symbol
 _atom_site_label
 _atom_site_symmetry_multiplicity
 _atom_site_fract_x
 _atom_site_fract_y
 _atom_site_fract_z
 _atom_site_occupancy
  Li+  Li1  1  0.31482500  0.12500000  0.59328000  1.0
  Li+  Li1  1  0.31482500  0.62500000  0.59328000  1.0
  Li+  Li1  1  0.81482500  0.12500000  0.59328000  1.0
  Li+  Li1  1  0.81482500  0.62500000  0.59328000  1.0
  Li+  Li1  1  0.18517500  0.37500000  0.40672000  1.0
  Li+  Li1  1  0.18517500  0.87500000  0.40672000  1.0
  Li+  Li1  1  0.68517500  0.37500000  0.40672000  1.0
  Li+  Li1  1  0.68517500  0.87500000  0.40672000  1.0
  Li+  Li1  1  0.06482500  0.37500000  0.90672000  1.0
  Li+  Li1  1  0.06482500  0.87500000  0.90672000  1.0
  Li+  Li1  1  0.56482500  0.37500000  0.90672000  1.0
  Li+  Li1  1  0.56482500  0.87500000  0.90672000  1.0
  Li+  Li1  1  0.43517500  0.12500000  0.09328000  1.0
  Li+  Li1  1  0.43517500  0.62500000  0.09328000  1.0
  Li+  Li1  1  0.93517500  0.12500000  0.09328000  1.0
  Li+  Li1  1  0.93517500  0.62500000  0.09328000  1.0
  Li+  Li2  1  0.34029500  0.00104500  0.82337000  1.0
  Li+  Li2  1  0.34029500  0.50104500  0.82337000  1.0
  Li+  Li2  1  0.84029500  0.00104500  0.82337000  1.0
  Li+  Li2  1  0.84029500  0.50104500  0.82337000  1.0
  Li+  Li2  1  0.15970500  0.25104500  0.17663000  1.0
  Li+  Li2  1  0.15970500  0.75104500  0.17663000  1.0
  Li+  Li2  1  0.65970500  0.25104500  0.17663000  1.0
  Li+  Li2  1  0.65970500  0.75104500  0.17663000  1.0
  Li+  Li2  1  0.09029500  0.49895500  0.67663000  1.0
  Li+  Li2  1  0.09029500  0.99895500  0.67663000  1.0
  Li+  Li2  1  0.59029500  0.49895500  0.67663000  1.0
  Li+  Li2  1  0.59029500  0.99895500  0.67663000  1.0
  Li+  Li2  1  0.09029500  0.25104500  0.67663000  1.0
  Li+  Li2  1  0.09029500  0.75104500  0.67663000  1.0
  Li+  Li2  1  0.59029500  0.25104500  0.67663000  1.0
  Li+  Li2  1  0.59029500  0.75104500  0.67663000  1.0
  Li+  Li2  1  0.34029500  0.24895500  0.82337000  1.0
  Li+  Li2  1  0.34029500  0.74895500  0.82337000  1.0
  Li+  Li2  1  0.84029500  0.24895500  0.82337000  1.0
  Li+  Li2  1  0.84029500  0.74895500  0.82337000  1.0
  Li+  Li2  1  0.15970500  0.49895500  0.17663000  1.0
  Li+  Li2  1  0.15970500  0.99895500  0.17663000  1.0
  Li+  Li2  1  0.65970500  0.49895500  0.17663000  1.0
  Li+  Li2  1  0.65970500  0.99895500  0.17663000  1.0
  Li+  Li2  1  0.40970500  0.24895500  0.32337000  1.0
  Li+  Li2  1  0.40970500  0.74895500  0.32337000  1.0
  Li+  Li2  1  0.90970500  0.24895500  0.32337000  1.0
  Li+  Li2  1  0.90970500  0.74895500  0.32337000  1.0
  Li+  Li2  1  0.40970500  0.00104500  0.32337000  1.0
  Li+  Li2  1  0.40970500  0.50104500  0.32337000  1.0
  Li+  Li2  1  0.90970500  0.00104500  0.32337000  1.0
  Li+  Li2  1  0.90970500  0.50104500  0.32337000  1.0
  Li+  Li24  1  0.26323000  0.01100000  0.99647000  1.0
  Li+  Li24  1  0.26323000  0.51100000  0.99647000  1.0
  Li+  Li25  1  0.23677000  0.26100000  0.00353000  1.0
  Li+  Li25  1  0.23677000  0.76100000  0.00353000  1.0
  Li+  Li26  1  0.01323000  0.48900000  0.50353000  1.0
  Li+  Li26  1  0.01323000  0.98900000  0.50353000  1.0
  Li+  Li27  1  0.51323000  0.48900000  0.50353000  1.0
  Li+  Li27  1  0.51323000  0.98900000  0.50353000  1.0
  Li+  Li28  1  0.51323000  0.26100000  0.50353000  1.0
  Li+  Li28  1  0.51323000  0.76100000  0.50353000  1.0
  Li+  Li29  1  0.76323000  0.23900000  0.99647000  1.0
  Li+  Li29  1  0.76323000  0.73900000  0.99647000  1.0
  Li+  Li30  1  0.73677000  0.48900000  0.00353000  1.0
  Li+  Li30  1  0.73677000  0.98900000  0.00353000  1.0
  Li+  Li31  1  0.98677000  0.23900000  0.49647000  1.0
  Li+  Li31  1  0.98677000  0.73900000  0.49647000  1.0
  Sn4+  Sn32  1  0.82278000  0.37500000  0.59024000  1.0
  Sn4+  Sn32  1  0.82278000  0.87500000  0.59024000  1.0
  Sn4+  Sn33  1  0.67722000  0.12500000  0.40976000  1.0
  Sn4+  Sn33  1  0.67722000  0.62500000  0.40976000  1.0
  Sn4+  Sn34  1  0.57278000  0.12500000  0.90976000  1.0
  Sn4+  Sn34  1  0.57278000  0.62500000  0.90976000  1.0
  Sn4+  Sn35  1  0.42722000  0.37500000  0.09024000  1.0
  Sn4+  Sn35  1  0.42722000  0.87500000  0.09024000  1.0
  Ge4+  Ge36  1  0.32278000  0.37500000  0.59024000  1.0
  Ge4+  Ge36  1  0.32278000  0.87500000  0.59024000  1.0
  Ge4+  Ge37  1  0.17722000  0.12500000  0.40976000  1.0
  Ge4+  Ge37  1  0.17722000  0.62500000  0.40976000  1.0
  Ge4+  Ge38  1  0.07278000  0.12500000  0.90976000  1.0
  Ge4+  Ge38  1  0.07278000  0.62500000  0.90976000  1.0
  Ge4+  Ge39  1  0.92722000  0.37500000  0.09024000  1.0
  Ge4+  Ge39  1  0.92722000  0.87500000  0.09024000  1.0
  S2-  S1  1  0.39062000  0.49590000  0.65884000  1.0
  S2-  S1  1  0.39062000  0.99590000  0.65884000  1.0
  S2-  S1  1  0.89062000  0.49590000  0.65884000  1.0
  S2-  S1  1  0.89062000  0.99590000  0.65884000  1.0
  S2-  S1  1  0.10938000  0.24590000  0.34116000  1.0
  S2-  S1  1  0.10938000  0.74590000  0.34116000  1.0
  S2-  S1  1  0.60938000  0.24590000  0.34116000  1.0
  S2-  S1  1  0.60938000  0.74590000  0.34116000  1.0
  S2-  S1  1  0.14062000  0.00410000  0.84116000  1.0
  S2-  S1  1  0.14062000  0.50410000  0.84116000  1.0
  S2-  S1  1  0.64062000  0.00410000  0.84116000  1.0
  S2-  S1  1  0.64062000  0.50410000  0.84116000  1.0
  S2-  S1  1  0.14062000  0.24590000  0.84116000  1.0
  S2-  S1  1  0.14062000  0.74590000  0.84116000  1.0
  S2-  S1  1  0.64062000  0.24590000  0.84116000  1.0
  S2-  S1  1  0.64062000  0.74590000  0.84116000  1.0
  S2-  S1  1  0.39062000  0.25410000  0.65884000  1.0
  S2-  S1  1  0.39062000  0.75410000  0.65884000  1.0
  S2-  S1  1  0.89062000  0.25410000  0.65884000  1.0
  S2-  S1  1  0.89062000  0.75410000  0.65884000  1.0
  S2-  S1  1  0.10938000  0.00410000  0.34116000  1.0
  S2-  S1  1  0.10938000  0.50410000  0.34116000  1.0
  S2-  S1  1  0.60938000  0.00410000  0.34116000  1.0
  S2-  S1  1  0.60938000  0.50410000  0.34116000  1.0
  S2-  S1  1  0.35938000  0.25410000  0.15884000  1.0
  S2-  S1  1  0.35938000  0.75410000  0.15884000  1.0
  S2-  S1  1  0.85938000  0.25410000  0.15884000  1.0
  S2-  S1  1  0.85938000  0.75410000  0.15884000  1.0
  S2-  S1  1  0.35938000  0.49590000  0.15884000  1.0
  S2-  S1  1  0.35938000  0.99590000  0.15884000  1.0
  S2-  S1  1  0.85938000  0.49590000  0.15884000  1.0
  S2-  S1  1  0.85938000  0.99590000  0.15884000  1.0
  S2-  S2  1  0.39022000  0.12500000  0.91577000  1.0
  S2-  S2  1  0.39022000  0.62500000  0.91577000  1.0
  S2-  S2  1  0.89022000  0.12500000  0.91577000  1.0
  S2-  S2  1  0.89022000  0.62500000  0.91577000  1.0
  S2-  S2  1  0.10978000  0.37500000  0.08423000  1.0
  S2-  S2  1  0.10978000  0.87500000  0.08423000  1.0
  S2-  S2  1  0.60978000  0.37500000  0.08423000  1.0
  S2-  S2  1  0.60978000  0.87500000  0.08423000  1.0
  S2-  S2  1  0.14022000  0.37500000  0.58423000  1.0
  S2-  S2  1  0.14022000  0.87500000  0.58423000  1.0
  S2-  S2  1  0.64022000  0.37500000  0.58423000  1.0
  S2-  S2  1  0.64022000  0.87500000  0.58423000  1.0
  S2-  S2  1  0.35978000  0.12500000  0.41577000  1.0
  S2-  S2  1  0.35978000  0.62500000  0.41577000  1.0
  S2-  S2  1  0.85978000  0.12500000  0.41577000  1.0
  S2-  S2  1  0.85978000  0.62500000  0.41577000  1.0
  S2-  S3  1  0.36734500  0.37500000  0.93699000  1.0
  S2-  S3  1  0.36734500  0.87500000  0.93699000  1.0
  S2-  S3  1  0.86734500  0.37500000  0.93699000  1.0
  S2-  S3  1  0.86734500  0.87500000  0.93699000  1.0
  S2-  S3  1  0.13265500  0.12500000  0.06301000  1.0
  S2-  S3  1  0.13265500  0.62500000  0.06301000  1.0
  S2-  S3  1  0.63265500  0.12500000  0.06301000  1.0
  S2-  S3  1  0.63265500  0.62500000  0.06301000  1.0
  S2-  S3  1  0.11734500  0.12500000  0.56301000  1.0
  S2-  S3  1  0.11734500  0.62500000  0.56301000  1.0
  S2-  S3  1  0.61734500  0.12500000  0.56301000  1.0
  S2-  S3  1  0.61734500  0.62500000  0.56301000  1.0
  S2-  S3  1  0.38265500  0.37500000  0.43699000  1.0
  S2-  S3  1  0.38265500  0.87500000  0.43699000  1.0
  S2-  S3  1  0.88265500  0.37500000  0.43699000  1.0
  S2-  S3  1  0.88265500  0.87500000  0.43699000  1.0
