# generated using pymatgen
data_LiEu9(Si3O13)2
_symmetry_space_group_name_H-M   'P 1'
_cell_length_a   13.75140000
_cell_length_b   9.43210000
_cell_length_c   18.86420000
_cell_angle_alpha   120.00000000
_cell_angle_beta   90.00000000
_cell_angle_gamma   90.00000000
_symmetry_Int_Tables_number   1
_chemical_formula_structural   LiEu9(Si3O13)2
_chemical_formula_sum   'Li4 Eu36 Si24 O104'
_cell_volume   2118.96769386
_cell_formula_units_Z   4
loop_
 _symmetry_equiv_pos_site_id
 _symmetry_equiv_pos_as_xyz
  1  'x, y, z'
loop_
 _atom_type_symbol
 _atom_type_oxidation_number
  Li+  1.0
  Eu3+  3.0
  Si4+  4.0
  O2-  -2.0
loop_
 _atom_site_type_symbol
 _atom_site_label
 _atom_site_symmetry_multiplicity
 _atom_site_fract_x
 _atom_site_fract_y
 _atom_site_fract_z
 _atom_site_occupancy
  Li+  Li0  1  0.49800000  0.33333333  0.58333333  1.0
  Li+  Li1  1  0.50085681  0.33304383  0.08208510  1.0
  Li+  Li2  1  0.99737961  0.66532953  0.41487386  1.0
  Li+  Li3  1  0.00200000  0.66666667  0.91666667  1.0
  Eu3+  Eu4  1  0.24800000  0.66666667  0.41666667  1.0
  Eu3+  Eu5  1  0.24800000  0.66666667  0.91666667  1.0
  Eu3+  Eu6  1  0.74800000  0.66666667  0.41666667  1.0
  Eu3+  Eu7  1  0.74800000  0.66666667  0.91666667  1.0
  Eu3+  Eu8  1  0.99533865  0.33611662  0.58688680  1.0
  Eu3+  Eu9  1  0.99800000  0.33333333  0.08333333  1.0
  Eu3+  Eu10  1  0.25200000  0.33333333  0.58333333  1.0
  Eu3+  Eu11  1  0.25200000  0.33333333  0.08333333  1.0
  Eu3+  Eu12  1  0.75200000  0.33333333  0.58333333  1.0
  Eu3+  Eu13  1  0.74909969  0.33659797  0.08641875  1.0
  Eu3+  Eu14  1  0.50200000  0.66666667  0.41666667  1.0
  Eu3+  Eu15  1  0.50200000  0.66666667  0.91666667  1.0
  Eu3+  Eu16  1  0.37747128  0.24354149  0.36253547  1.0
  Eu3+  Eu17  1  0.37500000  0.24330000  0.86615000  1.0
  Eu3+  Eu18  1  0.87500000  0.24330000  0.36615000  1.0
  Eu3+  Eu19  1  0.87500000  0.24330000  0.86615000  1.0
  Eu3+  Eu20  1  0.37500000  0.98900000  0.62835000  1.0
  Eu3+  Eu21  1  0.37078189  0.98592096  0.12926908  1.0
  Eu3+  Eu22  1  0.87500000  0.98900000  0.62835000  1.0
  Eu3+  Eu23  1  0.87500000  0.98900000  0.12835000  1.0
  Eu3+  Eu24  1  0.37500000  0.76770000  0.25550000  1.0
  Eu3+  Eu25  1  0.37500000  0.76770000  0.75550000  1.0
  Eu3+  Eu26  1  0.87500000  0.76770000  0.25550000  1.0
  Eu3+  Eu27  1  0.87500000  0.76770000  0.75550000  1.0
  Eu3+  Eu28  1  0.12500000  0.75670000  0.63385000  1.0
  Eu3+  Eu29  1  0.12500000  0.75670000  0.13385000  1.0
  Eu3+  Eu30  1  0.62602249  0.75671264  0.62989477  1.0
  Eu3+  Eu31  1  0.62500000  0.75670000  0.13385000  1.0
  Eu3+  Eu32  1  0.12500000  0.01100000  0.37165000  1.0
  Eu3+  Eu33  1  0.12726722  0.01298329  0.86910145  1.0
  Eu3+  Eu34  1  0.62500000  0.01100000  0.37165000  1.0
  Eu3+  Eu35  1  0.62500000  0.01100000  0.87165000  1.0
  Eu3+  Eu36  1  0.12542249  0.23514818  0.74122243  1.0
  Eu3+  Eu37  1  0.12500000  0.23230000  0.24450000  1.0
  Eu3+  Eu38  1  0.62500000  0.23230000  0.74450000  1.0
  Eu3+  Eu39  1  0.62500000  0.23230000  0.24450000  1.0
  Si4+  Si40  1  0.37500000  0.34030000  0.71930000  1.0
  Si4+  Si41  1  0.37491287  0.34334959  0.21831376  1.0
  Si4+  Si42  1  0.87431381  0.33972285  0.71844765  1.0
  Si4+  Si43  1  0.87151028  0.33824442  0.21956766  1.0
  Si4+  Si44  1  0.37500000  0.59830000  0.57985000  1.0
  Si4+  Si45  1  0.37500000  0.59830000  0.07985000  1.0
  Si4+  Si46  1  0.87500000  0.59830000  0.57985000  1.0
  Si4+  Si47  1  0.87500000  0.59830000  0.07985000  1.0
  Si4+  Si48  1  0.37500000  0.06140000  0.45085000  1.0
  Si4+  Si49  1  0.37500000  0.06140000  0.95085000  1.0
  Si4+  Si50  1  0.87500000  0.06140000  0.45085000  1.0
  Si4+  Si51  1  0.87500000  0.06140000  0.95085000  1.0
  Si4+  Si52  1  0.12500000  0.65970000  0.28070000  1.0
  Si4+  Si53  1  0.12500000  0.65970000  0.78070000  1.0
  Si4+  Si54  1  0.62500000  0.65970000  0.28070000  1.0
  Si4+  Si55  1  0.62705602  0.66263859  0.78233267  1.0
  Si4+  Si56  1  0.12500000  0.40170000  0.42015000  1.0
  Si4+  Si57  1  0.12500000  0.40170000  0.92015000  1.0
  Si4+  Si58  1  0.62694466  0.40191169  0.42070077  1.0
  Si4+  Si59  1  0.62696809  0.40162464  0.92063256  1.0
  Si4+  Si60  1  0.12500000  0.93860000  0.54915000  1.0
  Si4+  Si61  1  0.12592635  0.93638231  0.04830340  1.0
  Si4+  Si62  1  0.62498537  0.94085510  0.54862698  1.0
  Si4+  Si63  1  0.62697225  0.93443756  0.04914308  1.0
  O2-  O64  1  0.37500000  0.49500000  0.33950000  1.0
  O2-  O65  1  0.37500000  0.49500000  0.83950000  1.0
  O2-  O66  1  0.87500000  0.49500000  0.33950000  1.0
  O2-  O67  1  0.87683643  0.49388837  0.84259622  1.0
  O2-  O68  1  0.37042419  0.68669678  0.50574285  1.0
  O2-  O69  1  0.37500000  0.68400000  0.00250000  1.0
  O2-  O70  1  0.87500000  0.68400000  0.50250000  1.0
  O2-  O71  1  0.87500000  0.68400000  0.00250000  1.0
  O2-  O72  1  0.37500000  0.82100000  0.40800000  1.0
  O2-  O73  1  0.37500000  0.82100000  0.90800000  1.0
  O2-  O74  1  0.87500000  0.82100000  0.40800000  1.0
  O2-  O75  1  0.87500000  0.82100000  0.90800000  1.0
  O2-  O76  1  0.12500000  0.50500000  0.66050000  1.0
  O2-  O77  1  0.12500000  0.50500000  0.16050000  1.0
  O2-  O78  1  0.62730025  0.50732987  0.65849105  1.0
  O2-  O79  1  0.62500000  0.50500000  0.16050000  1.0
  O2-  O80  1  0.12500000  0.31600000  0.49750000  1.0
  O2-  O81  1  0.12500000  0.31600000  0.99750000  1.0
  O2-  O82  1  0.62500000  0.31600000  0.49750000  1.0
  O2-  O83  1  0.62500000  0.31600000  0.99750000  1.0
  O2-  O84  1  0.12500000  0.17900000  0.59200000  1.0
  O2-  O85  1  0.12500000  0.17900000  0.09200000  1.0
  O2-  O86  1  0.62500000  0.17900000  0.59200000  1.0
  O2-  O87  1  0.62309303  0.17909998  0.09018470  1.0
  O2-  O88  1  0.37500000  0.48000000  0.68500000  1.0
  O2-  O89  1  0.37500000  0.48000000  0.18500000  1.0
  O2-  O90  1  0.87500000  0.48000000  0.68500000  1.0
  O2-  O91  1  0.87500000  0.48000000  0.18500000  1.0
  O2-  O92  1  0.37500000  0.39000000  0.51000000  1.0
  O2-  O93  1  0.37500000  0.39000000  0.01000000  1.0
  O2-  O94  1  0.86933780  0.39260564  0.50818947  1.0
  O2-  O95  1  0.87500000  0.39000000  0.01000000  1.0
  O2-  O96  1  0.37500000  0.13000000  0.55500000  1.0
  O2-  O97  1  0.37500000  0.13000000  0.05500000  1.0
  O2-  O98  1  0.87500000  0.13000000  0.55500000  1.0
  O2-  O99  1  0.87500000  0.13000000  0.05500000  1.0
  O2-  O100  1  0.12500000  0.52000000  0.31500000  1.0
  O2-  O101  1  0.12500000  0.52000000  0.81500000  1.0
  O2-  O102  1  0.62500000  0.52000000  0.31500000  1.0
  O2-  O103  1  0.62447629  0.51931982  0.81361658  1.0
  O2-  O104  1  0.12500000  0.61000000  0.49000000  1.0
  O2-  O105  1  0.12500000  0.61000000  0.99000000  1.0
  O2-  O106  1  0.62648859  0.61133198  0.49231200  1.0
  O2-  O107  1  0.62500000  0.61000000  0.99000000  1.0
  O2-  O108  1  0.12500000  0.87000000  0.44500000  1.0
  O2-  O109  1  0.12500000  0.87000000  0.94500000  1.0
  O2-  O110  1  0.62500000  0.87000000  0.44500000  1.0
  O2-  O111  1  0.62580538  0.87114285  0.94545790  1.0
  O2-  O112  1  0.28303687  0.26411295  0.70634403  1.0
  O2-  O113  1  0.28689660  0.25913558  0.21031356  1.0
  O2-  O114  1  0.78498468  0.25903043  0.71318975  1.0
  O2-  O115  1  0.78550000  0.26000000  0.20995000  1.0
  O2-  O116  1  0.28550000  0.65990000  0.62000000  1.0
  O2-  O117  1  0.28520251  0.65519472  0.11950725  1.0
  O2-  O118  1  0.78550000  0.65990000  0.62000000  1.0
  O2-  O119  1  0.78550000  0.65990000  0.12000000  1.0
  O2-  O120  1  0.28401820  0.08085475  0.42222553  1.0
  O2-  O121  1  0.28550000  0.08010000  0.92005000  1.0
  O2-  O122  1  0.78550000  0.08010000  0.42005000  1.0
  O2-  O123  1  0.78550000  0.08010000  0.92005000  1.0
  O2-  O124  1  0.03550000  0.74000000  0.29005000  1.0
  O2-  O125  1  0.03263630  0.74055133  0.78393073  1.0
  O2-  O126  1  0.53488628  0.74095882  0.29255430  1.0
  O2-  O127  1  0.53550000  0.74000000  0.79005000  1.0
  O2-  O128  1  0.03550000  0.34010000  0.38000000  1.0
  O2-  O129  1  0.03550000  0.34010000  0.88000000  1.0
  O2-  O130  1  0.53550000  0.34010000  0.38000000  1.0
  O2-  O131  1  0.53550000  0.34010000  0.88000000  1.0
  O2-  O132  1  0.03550000  0.91990000  0.57995000  1.0
  O2-  O133  1  0.03696158  0.92091223  0.07878814  1.0
  O2-  O134  1  0.53550000  0.91990000  0.57995000  1.0
  O2-  O135  1  0.53550000  0.91990000  0.07995000  1.0
  O2-  O136  1  0.21450000  0.74000000  0.29005000  1.0
  O2-  O137  1  0.21292484  0.74017238  0.78891360  1.0
  O2-  O138  1  0.71450000  0.74000000  0.29005000  1.0
  O2-  O139  1  0.71450000  0.74000000  0.79005000  1.0
  O2-  O140  1  0.21523043  0.33617817  0.37956764  1.0
  O2-  O141  1  0.21274508  0.33873257  0.88435783  1.0
  O2-  O142  1  0.71450000  0.34010000  0.38000000  1.0
  O2-  O143  1  0.71450000  0.34010000  0.88000000  1.0
  O2-  O144  1  0.21450000  0.91990000  0.57995000  1.0
  O2-  O145  1  0.21450000  0.91990000  0.07995000  1.0
  O2-  O146  1  0.71450000  0.91990000  0.57995000  1.0
  O2-  O147  1  0.71450000  0.91990000  0.07995000  1.0
  O2-  O148  1  0.46450000  0.26000000  0.70995000  1.0
  O2-  O149  1  0.46450000  0.26000000  0.20995000  1.0
  O2-  O150  1  0.96450000  0.26000000  0.70995000  1.0
  O2-  O151  1  0.96450000  0.26000000  0.20995000  1.0
  O2-  O152  1  0.46450000  0.65990000  0.62000000  1.0
  O2-  O153  1  0.46450000  0.65990000  0.12000000  1.0
  O2-  O154  1  0.96450000  0.65990000  0.62000000  1.0
  O2-  O155  1  0.96450000  0.65990000  0.12000000  1.0
  O2-  O156  1  0.46531723  0.08325157  0.41663141  1.0
  O2-  O157  1  0.46450000  0.08010000  0.92005000  1.0
  O2-  O158  1  0.96450000  0.08010000  0.42005000  1.0
  O2-  O159  1  0.96450000  0.08010000  0.92005000  1.0
  O2-  O160  1  0.37500000  0.00000000  0.75000000  1.0
  O2-  O161  1  0.37185689  0.00147371  0.24468544  1.0
  O2-  O162  1  0.87500000  0.00000000  0.75000000  1.0
  O2-  O163  1  0.87161261  0.99646984  0.24812864  1.0
  O2-  O164  1  0.12500000  0.00000000  0.75000000  1.0
  O2-  O165  1  0.12511308  0.99735902  0.24709494  1.0
  O2-  O166  1  0.62204905  0.00324475  0.75072641  1.0
  O2-  O167  1  0.62500000  0.00000000  0.25000000  1.0
