# generated using pymatgen
data_LiEu9(Si3O13)2
_symmetry_space_group_name_H-M   'P 1'
_cell_length_a   18.90325713
_cell_length_b   13.77987140
_cell_length_c   9.45162856
_cell_angle_alpha   90.00000000
_cell_angle_beta   60.00000000
_cell_angle_gamma   90.00000000
_symmetry_Int_Tables_number   1
_chemical_formula_structural   LiEu9(Si3O13)2
_chemical_formula_sum   'Li4 Eu36 Si24 O104'
_cell_volume   2132.15652621
_cell_formula_units_Z   4
loop_
 _symmetry_equiv_pos_site_id
 _symmetry_equiv_pos_as_xyz
  1  'x, y, z'
loop_
 _atom_type_symbol
 _atom_type_oxidation_number
  Li+  1.0
  Eu3+  3.0
  Si4+  4.0
  O2-  -2.0
loop_
 _atom_site_type_symbol
 _atom_site_label
 _atom_site_symmetry_multiplicity
 _atom_site_fract_x
 _atom_site_fract_y
 _atom_site_fract_z
 _atom_site_occupancy
  Li+  Li0  1  0.83333333  0.16866667  0.66666667  1.0
  Li+  Li1  1  0.33333333  0.16866667  0.66666667  1.0
  Li+  Li2  1  0.66666667  0.66466667  0.33333333  1.0
  Li+  Li3  1  0.16666667  0.66466667  0.33333333  1.0
  Eu3+  Eu4  1  0.66666667  0.41866667  0.33333333  1.0
  Eu3+  Eu5  1  0.16666667  0.41866667  0.33333333  1.0
  Eu3+  Eu6  1  0.66666667  0.91866667  0.33333333  1.0
  Eu3+  Eu7  1  0.16666667  0.91866667  0.33333333  1.0
  Eu3+  Eu8  1  0.83333333  0.66866667  0.66666667  1.0
  Eu3+  Eu9  1  0.33333333  0.66866667  0.66666667  1.0
  Eu3+  Eu10  1  0.83333333  0.41466667  0.66666667  1.0
  Eu3+  Eu11  1  0.33333333  0.41466667  0.66666667  1.0
  Eu3+  Eu12  1  0.83333333  0.91466667  0.66666667  1.0
  Eu3+  Eu13  1  0.33333333  0.91466667  0.66666667  1.0
  Eu3+  Eu14  1  0.66666667  0.16466667  0.33333333  1.0
  Eu3+  Eu15  1  0.16666667  0.16466667  0.33333333  1.0
  Eu3+  Eu16  1  0.61615000  0.29166667  0.75670000  1.0
  Eu3+  Eu17  1  0.11615000  0.29166667  0.75670000  1.0
  Eu3+  Eu18  1  0.61615000  0.79166667  0.75670000  1.0
  Eu3+  Eu19  1  0.11615000  0.79166667  0.75670000  1.0
  Eu3+  Eu20  1  0.87835000  0.29166667  0.01100000  1.0
  Eu3+  Eu21  1  0.37835000  0.29166667  0.01100000  1.0
  Eu3+  Eu22  1  0.87835000  0.79166667  0.01100000  1.0
  Eu3+  Eu23  1  0.37835000  0.79166667  0.01100000  1.0
  Eu3+  Eu24  1  0.50550000  0.29166667  0.23230000  1.0
  Eu3+  Eu25  1  0.00550000  0.29166667  0.23230000  1.0
  Eu3+  Eu26  1  0.50550000  0.79166667  0.23230000  1.0
  Eu3+  Eu27  1  0.00550000  0.79166667  0.23230000  1.0
  Eu3+  Eu28  1  0.88385000  0.54166667  0.24330000  1.0
  Eu3+  Eu29  1  0.38385000  0.54166667  0.24330000  1.0
  Eu3+  Eu30  1  0.88385000  0.04166667  0.24330000  1.0
  Eu3+  Eu31  1  0.38385000  0.04166667  0.24330000  1.0
  Eu3+  Eu32  1  0.62165000  0.54166667  0.98900000  1.0
  Eu3+  Eu33  1  0.12165000  0.54166667  0.98900000  1.0
  Eu3+  Eu34  1  0.62165000  0.04166667  0.98900000  1.0
  Eu3+  Eu35  1  0.12165000  0.04166667  0.98900000  1.0
  Eu3+  Eu36  1  0.99450000  0.54166667  0.76770000  1.0
  Eu3+  Eu37  1  0.49450000  0.54166667  0.76770000  1.0
  Eu3+  Eu38  1  0.99450000  0.04166667  0.76770000  1.0
  Eu3+  Eu39  1  0.49450000  0.04166667  0.76770000  1.0
  Si4+  Si40  1  0.96930000  0.29166667  0.65970000  1.0
  Si4+  Si41  1  0.46930000  0.29166667  0.65970000  1.0
  Si4+  Si42  1  0.96930000  0.79166667  0.65970000  1.0
  Si4+  Si43  1  0.46930000  0.79166667  0.65970000  1.0
  Si4+  Si44  1  0.82985000  0.29166667  0.40170000  1.0
  Si4+  Si45  1  0.32985000  0.29166667  0.40170000  1.0
  Si4+  Si46  1  0.82985000  0.79166667  0.40170000  1.0
  Si4+  Si47  1  0.32985000  0.79166667  0.40170000  1.0
  Si4+  Si48  1  0.70085000  0.29166667  0.93860000  1.0
  Si4+  Si49  1  0.20085000  0.29166667  0.93860000  1.0
  Si4+  Si50  1  0.70085000  0.79166667  0.93860000  1.0
  Si4+  Si51  1  0.20085000  0.79166667  0.93860000  1.0
  Si4+  Si52  1  0.53070000  0.54166667  0.34030000  1.0
  Si4+  Si53  1  0.03070000  0.54166667  0.34030000  1.0
  Si4+  Si54  1  0.53070000  0.04166667  0.34030000  1.0
  Si4+  Si55  1  0.03070000  0.04166667  0.34030000  1.0
  Si4+  Si56  1  0.67015000  0.54166667  0.59830000  1.0
  Si4+  Si57  1  0.17015000  0.54166667  0.59830000  1.0
  Si4+  Si58  1  0.67015000  0.04166667  0.59830000  1.0
  Si4+  Si59  1  0.17015000  0.04166667  0.59830000  1.0
  Si4+  Si60  1  0.79915000  0.54166667  0.06140000  1.0
  Si4+  Si61  1  0.29915000  0.54166667  0.06140000  1.0
  Si4+  Si62  1  0.79915000  0.04166667  0.06140000  1.0
  Si4+  Si63  1  0.29915000  0.04166667  0.06140000  1.0
  O2-  O64  1  0.58950000  0.29166667  0.50500000  1.0
  O2-  O65  1  0.08950000  0.29166667  0.50500000  1.0
  O2-  O66  1  0.58950000  0.79166667  0.50500000  1.0
  O2-  O67  1  0.08950000  0.79166667  0.50500000  1.0
  O2-  O68  1  0.75250000  0.29166667  0.31600000  1.0
  O2-  O69  1  0.25250000  0.29166667  0.31600000  1.0
  O2-  O70  1  0.75250000  0.79166667  0.31600000  1.0
  O2-  O71  1  0.25250000  0.79166667  0.31600000  1.0
  O2-  O72  1  0.65800000  0.29166667  0.17900000  1.0
  O2-  O73  1  0.15800000  0.29166667  0.17900000  1.0
  O2-  O74  1  0.65800000  0.79166667  0.17900000  1.0
  O2-  O75  1  0.15800000  0.79166667  0.17900000  1.0
  O2-  O76  1  0.91050000  0.54166667  0.49500000  1.0
  O2-  O77  1  0.41050000  0.54166667  0.49500000  1.0
  O2-  O78  1  0.91050000  0.04166667  0.49500000  1.0
  O2-  O79  1  0.41050000  0.04166667  0.49500000  1.0
  O2-  O80  1  0.74750000  0.54166667  0.68400000  1.0
  O2-  O81  1  0.24750000  0.54166667  0.68400000  1.0
  O2-  O82  1  0.74750000  0.04166667  0.68400000  1.0
  O2-  O83  1  0.24750000  0.04166667  0.68400000  1.0
  O2-  O84  1  0.84200000  0.54166667  0.82100000  1.0
  O2-  O85  1  0.34200000  0.54166667  0.82100000  1.0
  O2-  O86  1  0.84200000  0.04166667  0.82100000  1.0
  O2-  O87  1  0.34200000  0.04166667  0.82100000  1.0
  O2-  O88  1  0.93500000  0.29166667  0.52000000  1.0
  O2-  O89  1  0.43500000  0.29166667  0.52000000  1.0
  O2-  O90  1  0.93500000  0.79166667  0.52000000  1.0
  O2-  O91  1  0.43500000  0.79166667  0.52000000  1.0
  O2-  O92  1  0.76000000  0.29166667  0.61000000  1.0
  O2-  O93  1  0.26000000  0.29166667  0.61000000  1.0
  O2-  O94  1  0.76000000  0.79166667  0.61000000  1.0
  O2-  O95  1  0.26000000  0.79166667  0.61000000  1.0
  O2-  O96  1  0.80500000  0.29166667  0.87000000  1.0
  O2-  O97  1  0.30500000  0.29166667  0.87000000  1.0
  O2-  O98  1  0.80500000  0.79166667  0.87000000  1.0
  O2-  O99  1  0.30500000  0.79166667  0.87000000  1.0
  O2-  O100  1  0.56500000  0.54166667  0.48000000  1.0
  O2-  O101  1  0.06500000  0.54166667  0.48000000  1.0
  O2-  O102  1  0.56500000  0.04166667  0.48000000  1.0
  O2-  O103  1  0.06500000  0.04166667  0.48000000  1.0
  O2-  O104  1  0.74000000  0.54166667  0.39000000  1.0
  O2-  O105  1  0.24000000  0.54166667  0.39000000  1.0
  O2-  O106  1  0.74000000  0.04166667  0.39000000  1.0
  O2-  O107  1  0.24000000  0.04166667  0.39000000  1.0
  O2-  O108  1  0.69500000  0.54166667  0.13000000  1.0
  O2-  O109  1  0.19500000  0.54166667  0.13000000  1.0
  O2-  O110  1  0.69500000  0.04166667  0.13000000  1.0
  O2-  O111  1  0.19500000  0.04166667  0.13000000  1.0
  O2-  O112  1  0.95995000  0.38116667  0.74000000  1.0
  O2-  O113  1  0.45995000  0.38116667  0.74000000  1.0
  O2-  O114  1  0.95995000  0.88116667  0.74000000  1.0
  O2-  O115  1  0.45995000  0.88116667  0.74000000  1.0
  O2-  O116  1  0.87000000  0.38116667  0.34010000  1.0
  O2-  O117  1  0.37000000  0.38116667  0.34010000  1.0
  O2-  O118  1  0.87000000  0.88116667  0.34010000  1.0
  O2-  O119  1  0.37000000  0.88116667  0.34010000  1.0
  O2-  O120  1  0.67005000  0.38116667  0.91990000  1.0
  O2-  O121  1  0.17005000  0.38116667  0.91990000  1.0
  O2-  O122  1  0.67005000  0.88116667  0.91990000  1.0
  O2-  O123  1  0.17005000  0.88116667  0.91990000  1.0
  O2-  O124  1  0.54005000  0.63116667  0.26000000  1.0
  O2-  O125  1  0.04005000  0.63116667  0.26000000  1.0
  O2-  O126  1  0.54005000  0.13116667  0.26000000  1.0
  O2-  O127  1  0.04005000  0.13116667  0.26000000  1.0
  O2-  O128  1  0.63000000  0.63116667  0.65990000  1.0
  O2-  O129  1  0.13000000  0.63116667  0.65990000  1.0
  O2-  O130  1  0.63000000  0.13116667  0.65990000  1.0
  O2-  O131  1  0.13000000  0.13116667  0.65990000  1.0
  O2-  O132  1  0.82995000  0.63116667  0.08010000  1.0
  O2-  O133  1  0.32995000  0.63116667  0.08010000  1.0
  O2-  O134  1  0.82995000  0.13116667  0.08010000  1.0
  O2-  O135  1  0.32995000  0.13116667  0.08010000  1.0
  O2-  O136  1  0.54005000  0.45216667  0.26000000  1.0
  O2-  O137  1  0.04005000  0.45216667  0.26000000  1.0
  O2-  O138  1  0.54005000  0.95216667  0.26000000  1.0
  O2-  O139  1  0.04005000  0.95216667  0.26000000  1.0
  O2-  O140  1  0.63000000  0.45216667  0.65990000  1.0
  O2-  O141  1  0.13000000  0.45216667  0.65990000  1.0
  O2-  O142  1  0.63000000  0.95216667  0.65990000  1.0
  O2-  O143  1  0.13000000  0.95216667  0.65990000  1.0
  O2-  O144  1  0.82995000  0.45216667  0.08010000  1.0
  O2-  O145  1  0.32995000  0.45216667  0.08010000  1.0
  O2-  O146  1  0.82995000  0.95216667  0.08010000  1.0
  O2-  O147  1  0.32995000  0.95216667  0.08010000  1.0
  O2-  O148  1  0.95995000  0.20216667  0.74000000  1.0
  O2-  O149  1  0.45995000  0.20216667  0.74000000  1.0
  O2-  O150  1  0.95995000  0.70216667  0.74000000  1.0
  O2-  O151  1  0.45995000  0.70216667  0.74000000  1.0
  O2-  O152  1  0.87000000  0.20216667  0.34010000  1.0
  O2-  O153  1  0.37000000  0.20216667  0.34010000  1.0
  O2-  O154  1  0.87000000  0.70216667  0.34010000  1.0
  O2-  O155  1  0.37000000  0.70216667  0.34010000  1.0
  O2-  O156  1  0.67005000  0.20216667  0.91990000  1.0
  O2-  O157  1  0.17005000  0.20216667  0.91990000  1.0
  O2-  O158  1  0.67005000  0.70216667  0.91990000  1.0
  O2-  O159  1  0.17005000  0.70216667  0.91990000  1.0
  O2-  O160  1  0.00000000  0.29166667  0.00000000  1.0
  O2-  O161  1  0.50000000  0.29166667  0.00000000  1.0
  O2-  O162  1  0.00000000  0.79166667  0.00000000  1.0
  O2-  O163  1  0.50000000  0.79166667  0.00000000  1.0
  O2-  O164  1  0.00000000  0.54166667  0.00000000  1.0
  O2-  O165  1  0.50000000  0.54166667  0.00000000  1.0
  O2-  O166  1  0.00000000  0.04166667  0.00000000  1.0
  O2-  O167  1  0.50000000  0.04166667  0.00000000  1.0
