# generated using pymatgen
data_LiEu9(Si3O13)2
_symmetry_space_group_name_H-M   'P 1'
_cell_length_a   13.75140000
_cell_length_b   18.86420000
_cell_length_c   9.43210000
_cell_angle_alpha   120.00000000
_cell_angle_beta   90.00000000
_cell_angle_gamma   90.00000000
_symmetry_Int_Tables_number   1
_chemical_formula_structural   LiEu9(Si3O13)2
_chemical_formula_sum   'Li4 Eu36 Si24 O104'
_cell_volume   2118.96769386
_cell_formula_units_Z   4
loop_
 _symmetry_equiv_pos_site_id
 _symmetry_equiv_pos_as_xyz
  1  'x, y, z'
loop_
 _atom_type_symbol
 _atom_type_oxidation_number
  Li+  1.0
  Eu3+  3.0
  Si4+  4.0
  O2-  -2.0
loop_
 _atom_site_type_symbol
 _atom_site_label
 _atom_site_symmetry_multiplicity
 _atom_site_fract_x
 _atom_site_fract_y
 _atom_site_fract_z
 _atom_site_occupancy
  Li+  Li0  1  0.49800000  0.16666667  0.66666667  1.0
  Li+  Li0  1  0.49800000  0.66666667  0.66666667  1.0
  Li+  Li1  1  0.00200000  0.33333333  0.33333333  1.0
  Li+  Li1  1  0.00200000  0.83333333  0.33333333  1.0
  Eu3+  Eu2  1  0.24800000  0.33333333  0.33333333  1.0
  Eu3+  Eu2  1  0.24800000  0.83333333  0.33333333  1.0
  Eu3+  Eu3  1  0.74800000  0.33333333  0.33333333  1.0
  Eu3+  Eu3  1  0.74800000  0.83333333  0.33333333  1.0
  Eu3+  Eu4  1  0.99800000  0.16666667  0.66666667  1.0
  Eu3+  Eu4  1  0.99800000  0.66666667  0.66666667  1.0
  Eu3+  Eu5  1  0.25200000  0.16666667  0.66666667  1.0
  Eu3+  Eu5  1  0.25200000  0.66666667  0.66666667  1.0
  Eu3+  Eu6  1  0.75200000  0.16666667  0.66666667  1.0
  Eu3+  Eu6  1  0.75200000  0.66666667  0.66666667  1.0
  Eu3+  Eu7  1  0.50200000  0.33333333  0.33333333  1.0
  Eu3+  Eu7  1  0.50200000  0.83333333  0.33333333  1.0
  Eu3+  Eu2  1  0.37500000  0.38385000  0.75670000  1.0
  Eu3+  Eu2  1  0.37500000  0.88385000  0.75670000  1.0
  Eu3+  Eu2  1  0.87500000  0.38385000  0.75670000  1.0
  Eu3+  Eu2  1  0.87500000  0.88385000  0.75670000  1.0
  Eu3+  Eu2  1  0.37500000  0.12165000  0.01100000  1.0
  Eu3+  Eu2  1  0.37500000  0.62165000  0.01100000  1.0
  Eu3+  Eu2  1  0.87500000  0.12165000  0.01100000  1.0
  Eu3+  Eu2  1  0.87500000  0.62165000  0.01100000  1.0
  Eu3+  Eu2  1  0.37500000  0.49450000  0.23230000  1.0
  Eu3+  Eu2  1  0.37500000  0.99450000  0.23230000  1.0
  Eu3+  Eu2  1  0.87500000  0.49450000  0.23230000  1.0
  Eu3+  Eu2  1  0.87500000  0.99450000  0.23230000  1.0
  Eu3+  Eu2  1  0.12500000  0.11615000  0.24330000  1.0
  Eu3+  Eu2  1  0.12500000  0.61615000  0.24330000  1.0
  Eu3+  Eu2  1  0.62500000  0.11615000  0.24330000  1.0
  Eu3+  Eu2  1  0.62500000  0.61615000  0.24330000  1.0
  Eu3+  Eu2  1  0.12500000  0.37835000  0.98900000  1.0
  Eu3+  Eu2  1  0.12500000  0.87835000  0.98900000  1.0
  Eu3+  Eu2  1  0.62500000  0.37835000  0.98900000  1.0
  Eu3+  Eu2  1  0.62500000  0.87835000  0.98900000  1.0
  Eu3+  Eu2  1  0.12500000  0.00550000  0.76770000  1.0
  Eu3+  Eu2  1  0.12500000  0.50550000  0.76770000  1.0
  Eu3+  Eu2  1  0.62500000  0.00550000  0.76770000  1.0
  Eu3+  Eu2  1  0.62500000  0.50550000  0.76770000  1.0
  Si4+  Si1  1  0.37500000  0.03070000  0.65970000  1.0
  Si4+  Si1  1  0.37500000  0.53070000  0.65970000  1.0
  Si4+  Si1  1  0.87500000  0.03070000  0.65970000  1.0
  Si4+  Si1  1  0.87500000  0.53070000  0.65970000  1.0
  Si4+  Si1  1  0.37500000  0.17015000  0.40170000  1.0
  Si4+  Si1  1  0.37500000  0.67015000  0.40170000  1.0
  Si4+  Si1  1  0.87500000  0.17015000  0.40170000  1.0
  Si4+  Si1  1  0.87500000  0.67015000  0.40170000  1.0
  Si4+  Si1  1  0.37500000  0.29915000  0.93860000  1.0
  Si4+  Si1  1  0.37500000  0.79915000  0.93860000  1.0
  Si4+  Si1  1  0.87500000  0.29915000  0.93860000  1.0
  Si4+  Si1  1  0.87500000  0.79915000  0.93860000  1.0
  Si4+  Si1  1  0.12500000  0.46930000  0.34030000  1.0
  Si4+  Si1  1  0.12500000  0.96930000  0.34030000  1.0
  Si4+  Si1  1  0.62500000  0.46930000  0.34030000  1.0
  Si4+  Si1  1  0.62500000  0.96930000  0.34030000  1.0
  Si4+  Si1  1  0.12500000  0.32985000  0.59830000  1.0
  Si4+  Si1  1  0.12500000  0.82985000  0.59830000  1.0
  Si4+  Si1  1  0.62500000  0.32985000  0.59830000  1.0
  Si4+  Si1  1  0.62500000  0.82985000  0.59830000  1.0
  Si4+  Si1  1  0.12500000  0.20085000  0.06140000  1.0
  Si4+  Si1  1  0.12500000  0.70085000  0.06140000  1.0
  Si4+  Si1  1  0.62500000  0.20085000  0.06140000  1.0
  Si4+  Si1  1  0.62500000  0.70085000  0.06140000  1.0
  O2-  O1  1  0.37500000  0.41050000  0.50500000  1.0
  O2-  O1  1  0.37500000  0.91050000  0.50500000  1.0
  O2-  O1  1  0.87500000  0.41050000  0.50500000  1.0
  O2-  O1  1  0.87500000  0.91050000  0.50500000  1.0
  O2-  O1  1  0.37500000  0.24750000  0.31600000  1.0
  O2-  O1  1  0.37500000  0.74750000  0.31600000  1.0
  O2-  O1  1  0.87500000  0.24750000  0.31600000  1.0
  O2-  O1  1  0.87500000  0.74750000  0.31600000  1.0
  O2-  O1  1  0.37500000  0.34200000  0.17900000  1.0
  O2-  O1  1  0.37500000  0.84200000  0.17900000  1.0
  O2-  O1  1  0.87500000  0.34200000  0.17900000  1.0
  O2-  O1  1  0.87500000  0.84200000  0.17900000  1.0
  O2-  O1  1  0.12500000  0.08950000  0.49500000  1.0
  O2-  O1  1  0.12500000  0.58950000  0.49500000  1.0
  O2-  O1  1  0.62500000  0.08950000  0.49500000  1.0
  O2-  O1  1  0.62500000  0.58950000  0.49500000  1.0
  O2-  O1  1  0.12500000  0.25250000  0.68400000  1.0
  O2-  O1  1  0.12500000  0.75250000  0.68400000  1.0
  O2-  O1  1  0.62500000  0.25250000  0.68400000  1.0
  O2-  O1  1  0.62500000  0.75250000  0.68400000  1.0
  O2-  O1  1  0.12500000  0.15800000  0.82100000  1.0
  O2-  O1  1  0.12500000  0.65800000  0.82100000  1.0
  O2-  O1  1  0.62500000  0.15800000  0.82100000  1.0
  O2-  O1  1  0.62500000  0.65800000  0.82100000  1.0
  O2-  O2  1  0.37500000  0.06500000  0.52000000  1.0
  O2-  O2  1  0.37500000  0.56500000  0.52000000  1.0
  O2-  O2  1  0.87500000  0.06500000  0.52000000  1.0
  O2-  O2  1  0.87500000  0.56500000  0.52000000  1.0
  O2-  O2  1  0.37500000  0.24000000  0.61000000  1.0
  O2-  O2  1  0.37500000  0.74000000  0.61000000  1.0
  O2-  O2  1  0.87500000  0.24000000  0.61000000  1.0
  O2-  O2  1  0.87500000  0.74000000  0.61000000  1.0
  O2-  O2  1  0.37500000  0.19500000  0.87000000  1.0
  O2-  O2  1  0.37500000  0.69500000  0.87000000  1.0
  O2-  O2  1  0.87500000  0.19500000  0.87000000  1.0
  O2-  O2  1  0.87500000  0.69500000  0.87000000  1.0
  O2-  O2  1  0.12500000  0.43500000  0.48000000  1.0
  O2-  O2  1  0.12500000  0.93500000  0.48000000  1.0
  O2-  O2  1  0.62500000  0.43500000  0.48000000  1.0
  O2-  O2  1  0.62500000  0.93500000  0.48000000  1.0
  O2-  O2  1  0.12500000  0.26000000  0.39000000  1.0
  O2-  O2  1  0.12500000  0.76000000  0.39000000  1.0
  O2-  O2  1  0.62500000  0.26000000  0.39000000  1.0
  O2-  O2  1  0.62500000  0.76000000  0.39000000  1.0
  O2-  O2  1  0.12500000  0.30500000  0.13000000  1.0
  O2-  O2  1  0.12500000  0.80500000  0.13000000  1.0
  O2-  O2  1  0.62500000  0.30500000  0.13000000  1.0
  O2-  O2  1  0.62500000  0.80500000  0.13000000  1.0
  O2-  O3  1  0.28550000  0.04005000  0.74000000  1.0
  O2-  O3  1  0.28550000  0.54005000  0.74000000  1.0
  O2-  O3  1  0.78550000  0.04005000  0.74000000  1.0
  O2-  O3  1  0.78550000  0.54005000  0.74000000  1.0
  O2-  O3  1  0.28550000  0.13000000  0.34010000  1.0
  O2-  O3  1  0.28550000  0.63000000  0.34010000  1.0
  O2-  O3  1  0.78550000  0.13000000  0.34010000  1.0
  O2-  O3  1  0.78550000  0.63000000  0.34010000  1.0
  O2-  O3  1  0.28550000  0.32995000  0.91990000  1.0
  O2-  O3  1  0.28550000  0.82995000  0.91990000  1.0
  O2-  O3  1  0.78550000  0.32995000  0.91990000  1.0
  O2-  O3  1  0.78550000  0.82995000  0.91990000  1.0
  O2-  O3  1  0.03550000  0.45995000  0.26000000  1.0
  O2-  O3  1  0.03550000  0.95995000  0.26000000  1.0
  O2-  O3  1  0.53550000  0.45995000  0.26000000  1.0
  O2-  O3  1  0.53550000  0.95995000  0.26000000  1.0
  O2-  O3  1  0.03550000  0.37000000  0.65990000  1.0
  O2-  O3  1  0.03550000  0.87000000  0.65990000  1.0
  O2-  O3  1  0.53550000  0.37000000  0.65990000  1.0
  O2-  O3  1  0.53550000  0.87000000  0.65990000  1.0
  O2-  O3  1  0.03550000  0.17005000  0.08010000  1.0
  O2-  O3  1  0.03550000  0.67005000  0.08010000  1.0
  O2-  O3  1  0.53550000  0.17005000  0.08010000  1.0
  O2-  O3  1  0.53550000  0.67005000  0.08010000  1.0
  O2-  O3  1  0.21450000  0.45995000  0.26000000  1.0
  O2-  O3  1  0.21450000  0.95995000  0.26000000  1.0
  O2-  O3  1  0.71450000  0.45995000  0.26000000  1.0
  O2-  O3  1  0.71450000  0.95995000  0.26000000  1.0
  O2-  O3  1  0.21450000  0.37000000  0.65990000  1.0
  O2-  O3  1  0.21450000  0.87000000  0.65990000  1.0
  O2-  O3  1  0.71450000  0.37000000  0.65990000  1.0
  O2-  O3  1  0.71450000  0.87000000  0.65990000  1.0
  O2-  O3  1  0.21450000  0.17005000  0.08010000  1.0
  O2-  O3  1  0.21450000  0.67005000  0.08010000  1.0
  O2-  O3  1  0.71450000  0.17005000  0.08010000  1.0
  O2-  O3  1  0.71450000  0.67005000  0.08010000  1.0
  O2-  O3  1  0.46450000  0.04005000  0.74000000  1.0
  O2-  O3  1  0.46450000  0.54005000  0.74000000  1.0
  O2-  O3  1  0.96450000  0.04005000  0.74000000  1.0
  O2-  O3  1  0.96450000  0.54005000  0.74000000  1.0
  O2-  O3  1  0.46450000  0.13000000  0.34010000  1.0
  O2-  O3  1  0.46450000  0.63000000  0.34010000  1.0
  O2-  O3  1  0.96450000  0.13000000  0.34010000  1.0
  O2-  O3  1  0.96450000  0.63000000  0.34010000  1.0
  O2-  O3  1  0.46450000  0.32995000  0.91990000  1.0
  O2-  O3  1  0.46450000  0.82995000  0.91990000  1.0
  O2-  O3  1  0.96450000  0.32995000  0.91990000  1.0
  O2-  O3  1  0.96450000  0.82995000  0.91990000  1.0
  O2-  O4  1  0.37500000  0.00000000  0.00000000  1.0
  O2-  O4  1  0.37500000  0.50000000  0.00000000  1.0
  O2-  O4  1  0.87500000  0.00000000  0.00000000  1.0
  O2-  O4  1  0.87500000  0.50000000  0.00000000  1.0
  O2-  O4  1  0.12500000  0.00000000  0.00000000  1.0
  O2-  O4  1  0.12500000  0.50000000  0.00000000  1.0
  O2-  O4  1  0.62500000  0.00000000  0.00000000  1.0
  O2-  O4  1  0.62500000  0.50000000  0.00000000  1.0
