# generated using pymatgen
data_Li31SnP4(S5I)5
_symmetry_space_group_name_H-M   'P 1'
_cell_length_a   7.21216390
_cell_length_b   36.06081949
_cell_length_c   14.42432780
_cell_angle_alpha   60.00000000
_cell_angle_beta   120.00000000
_cell_angle_gamma   120.00000000
_symmetry_Int_Tables_number   1
_chemical_formula_structural   Li31SnP4(S5I)5
_chemical_formula_sum   'Li62 Sn2 P8 S50 I10'
_cell_volume   2652.66107857
_cell_formula_units_Z   2
loop_
 _symmetry_equiv_pos_site_id
 _symmetry_equiv_pos_as_xyz
  1  'x, y, z'
loop_
 _atom_type_symbol
 _atom_type_oxidation_number
  Li+  1.0
  Sn4+  4.0
  P5+  5.0
  S2-  -2.0
  I-  -1.0
loop_
 _atom_site_type_symbol
 _atom_site_label
 _atom_site_symmetry_multiplicity
 _atom_site_fract_x
 _atom_site_fract_y
 _atom_site_fract_z
 _atom_site_occupancy
  Li+  Li0  1  0.47827752  0.70633532  0.24541328  1.0
  Li+  Li1  1  0.48475364  0.50536017  0.24419431  1.0
  Li+  Li2  1  0.48200000  0.30360000  0.24100000  1.0
  Li+  Li3  1  0.01800000  0.50360000  0.50900000  1.0
  Li+  Li4  1  0.01800000  0.30360000  0.50900000  1.0
  Li+  Li5  1  0.01132748  0.30749888  0.01260624  1.0
  Li+  Li6  1  0.48200000  0.99640000  0.74100000  1.0
  Li+  Li7  1  0.01800000  0.70360000  0.74100000  1.0
  Li+  Li8  1  0.01800000  0.50360000  0.24100000  1.0
  Li+  Li9  1  0.01800000  0.10360000  0.24100000  1.0
  Li+  Li10  1  0.01800000  0.79640000  0.50900000  1.0
  Li+  Li11  1  0.01800000  0.59640000  0.50900000  1.0
  Li+  Li12  1  0.01800000  0.19640000  0.50900000  1.0
  Li+  Li13  1  0.48200000  0.99640000  0.50900000  1.0
  Li+  Li14  1  0.40614000  0.88229200  0.74867000  1.0
  Li+  Li15  1  0.40614000  0.48229200  0.74867000  1.0
  Li+  Li16  1  0.40614000  0.28229200  0.74867000  1.0
  Li+  Li17  1  0.00266000  0.71877200  0.45573000  1.0
  Li+  Li18  1  0.00235616  0.32249683  0.45500394  1.0
  Li+  Li19  1  0.00031728  0.91746024  0.95748496  1.0
  Li+  Li20  1  0.00210629  0.52198704  0.95370824  1.0
  Li+  Li21  1  0.58854000  0.19946800  0.74867000  1.0
  Li+  Li22  1  0.58469518  0.80125936  0.24596960  1.0
  Li+  Li23  1  0.58907421  0.59679780  0.24941143  1.0
  Li+  Li24  1  0.58854000  0.91877200  0.74867000  1.0
  Li+  Li25  1  0.58854000  0.51877200  0.74867000  1.0
  Li+  Li26  1  0.59353429  0.32028829  0.74609513  1.0
  Li+  Li27  1  0.59153507  0.11850634  0.75014147  1.0
  Li+  Li28  1  0.59276658  0.12090463  0.25047206  1.0
  Li+  Li29  1  0.00266000  0.88229200  0.74867000  1.0
  Li+  Li30  1  0.00266000  0.08229200  0.74867000  1.0
  Li+  Li31  1  0.00514757  0.68389758  0.24350521  1.0
  Li+  Li32  1  0.00543341  0.91738328  0.74945900  1.0
  Li+  Li33  1  0.00266000  0.31877200  0.74867000  1.0
  Li+  Li34  1  0.00266000  0.91877200  0.24867000  1.0
  Li+  Li35  1  0.00187664  0.11642345  0.25171894  1.0
  Li+  Li36  1  0.00266000  0.88229200  0.54693000  1.0
  Li+  Li37  1  0.00566932  0.67890304  0.54846127  1.0
  Li+  Li38  1  0.00266000  0.28229200  0.54693000  1.0
  Li+  Li39  1  0.00266000  0.68229200  0.04693000  1.0
  Li+  Li40  1  0.00266000  0.28229200  0.04693000  1.0
  Li+  Li41  1  0.00266000  0.08229200  0.04693000  1.0
  Li+  Li42  1  0.00266000  0.79946800  0.04693000  1.0
  Li+  Li43  1  0.00266000  0.59946800  0.04693000  1.0
  Li+  Li44  1  0.40614000  0.79946800  0.74867000  1.0
  Li+  Li45  1  0.40614000  0.59946800  0.74867000  1.0
  Li+  Li46  1  0.40614000  0.39946800  0.74867000  1.0
  Li+  Li47  1  0.40614000  0.19946800  0.74867000  1.0
  Li+  Li48  1  0.40614000  0.39946800  0.24867000  1.0
  Li+  Li49  1  0.00266000  0.79946800  0.45573000  1.0
  Li+  Li50  1  0.00367141  0.59837981  0.45295685  1.0
  Li+  Li51  1  0.00266000  0.39946800  0.45573000  1.0
  Li+  Li52  1  0.00266000  0.19946800  0.45573000  1.0
  Li+  Li53  1  0.00449019  0.00130083  0.95397246  1.0
  Li+  Li54  1  0.00266000  0.19946800  0.95573000  1.0
  Li+  Li55  1  0.58854000  0.99946800  0.54693000  1.0
  Li+  Li56  1  0.58854000  0.79946800  0.54693000  1.0
  Li+  Li57  1  0.58854000  0.59946800  0.54693000  1.0
  Li+  Li58  1  0.58854000  0.79946800  0.04693000  1.0
  Li+  Li59  1  0.58564775  0.39523821  0.04493885  1.0
  Li+  Li60  1  0.40614000  0.19946800  0.45573000  1.0
  Li+  Li61  1  0.40614000  0.99946800  0.95573000  1.0
  Sn4+  Sn62  1  0.50000000  0.30000000  0.50000000  1.0
  Sn4+  Sn63  1  0.50000000  0.50000000  0.00000000  1.0
  P5+  P64  1  0.50000000  0.90000000  0.50000000  1.0
  P5+  P65  1  0.49884161  0.70004762  0.49799526  1.0
  P5+  P66  1  0.50000000  0.50000000  0.50000000  1.0
  P5+  P67  1  0.50000000  0.10000000  0.50000000  1.0
  P5+  P68  1  0.50000000  0.90000000  0.00000000  1.0
  P5+  P69  1  0.50000000  0.70000000  0.00000000  1.0
  P5+  P70  1  0.50000000  0.30000000  0.00000000  1.0
  P5+  P71  1  0.50000000  0.10000000  0.00000000  1.0
  S2-  S72  1  0.25000000  0.95000000  0.62500000  1.0
  S2-  S73  1  0.25000000  0.75000000  0.62500000  1.0
  S2-  S74  1  0.25000000  0.55000000  0.62500000  1.0
  S2-  S75  1  0.25000000  0.35000000  0.62500000  1.0
  S2-  S76  1  0.25000000  0.15000000  0.62500000  1.0
  S2-  S77  1  0.24847441  0.95386371  0.12790175  1.0
  S2-  S78  1  0.25000000  0.75000000  0.12500000  1.0
  S2-  S79  1  0.24785712  0.54986667  0.12034722  1.0
  S2-  S80  1  0.25000000  0.35000000  0.12500000  1.0
  S2-  S81  1  0.25000000  0.15000000  0.12500000  1.0
  S2-  S82  1  0.61747000  0.87650600  0.67620500  1.0
  S2-  S83  1  0.61747000  0.67650600  0.67620500  1.0
  S2-  S84  1  0.61816064  0.47859529  0.67682826  1.0
  S2-  S85  1  0.61747000  0.27650600  0.67620500  1.0
  S2-  S86  1  0.61747000  0.07650600  0.67620500  1.0
  S2-  S87  1  0.61747000  0.87650600  0.17620500  1.0
  S2-  S88  1  0.61747000  0.67650600  0.17620500  1.0
  S2-  S89  1  0.61747000  0.47650600  0.17620500  1.0
  S2-  S90  1  0.61747000  0.27650600  0.17620500  1.0
  S2-  S91  1  0.61747000  0.07650600  0.17620500  1.0
  S2-  S92  1  0.61747000  0.87650600  0.44126500  1.0
  S2-  S93  1  0.61747000  0.67650600  0.44126500  1.0
  S2-  S94  1  0.61404982  0.47836786  0.44190785  1.0
  S2-  S95  1  0.61747000  0.27650600  0.44126500  1.0
  S2-  S96  1  0.61700801  0.07612457  0.44484199  1.0
  S2-  S97  1  0.61317627  0.88291880  0.93742775  1.0
  S2-  S98  1  0.61842187  0.67688557  0.94387793  1.0
  S2-  S99  1  0.61747000  0.47650600  0.94126500  1.0
  S2-  S100  1  0.61747000  0.27650600  0.94126500  1.0
  S2-  S101  1  0.61747000  0.07650600  0.94126500  1.0
  S2-  S102  1  0.61747000  0.97048200  0.44126500  1.0
  S2-  S103  1  0.62026376  0.76721290  0.44236967  1.0
  S2-  S104  1  0.61960480  0.57222647  0.44401194  1.0
  S2-  S105  1  0.61747000  0.37048200  0.44126500  1.0
  S2-  S106  1  0.61747000  0.17048200  0.44126500  1.0
  S2-  S107  1  0.62185890  0.97540745  0.94211015  1.0
  S2-  S108  1  0.61747000  0.77048200  0.94126500  1.0
  S2-  S109  1  0.61551379  0.56959185  0.94161854  1.0
  S2-  S110  1  0.61747000  0.37048200  0.94126500  1.0
  S2-  S111  1  0.61747000  0.17048200  0.94126500  1.0
  S2-  S112  1  0.14759000  0.87650600  0.44126500  1.0
  S2-  S113  1  0.14759000  0.67650600  0.44126500  1.0
  S2-  S114  1  0.14836284  0.47717532  0.44224661  1.0
  S2-  S115  1  0.14759000  0.27650600  0.44126500  1.0
  S2-  S116  1  0.14759000  0.07650600  0.44126500  1.0
  S2-  S117  1  0.14759000  0.87650600  0.94126500  1.0
  S2-  S118  1  0.14759000  0.67650600  0.94126500  1.0
  S2-  S119  1  0.14535562  0.47213264  0.94228865  1.0
  S2-  S120  1  0.14759000  0.27650600  0.94126500  1.0
  S2-  S121  1  0.14759000  0.07650600  0.94126500  1.0
  I-  I122  1  0.00000000  0.00000000  0.75000000  1.0
  I-  I123  1  0.00000000  0.80000000  0.75000000  1.0
  I-  I124  1  0.00000000  0.60000000  0.75000000  1.0
  I-  I125  1  0.00180165  0.40170400  0.75216066  1.0
  I-  I126  1  0.00000000  0.20000000  0.75000000  1.0
  I-  I127  1  0.00000000  0.00000000  0.25000000  1.0
  I-  I128  1  0.00000000  0.80000000  0.25000000  1.0
  I-  I129  1  0.00000000  0.60000000  0.25000000  1.0
  I-  I130  1  0.00000000  0.40000000  0.25000000  1.0
  I-  I131  1  0.00000000  0.20000000  0.25000000  1.0
