# generated using pymatgen
data_Li31SnP4(S5I)5
_symmetry_space_group_name_H-M   'P 1'
_cell_length_a   14.28233840
_cell_length_b   7.14116920
_cell_length_c   35.70584599
_cell_angle_alpha   120.00000000
_cell_angle_beta   120.00000000
_cell_angle_gamma   60.00000000
_symmetry_Int_Tables_number   1
_chemical_formula_structural   Li31SnP4(S5I)5
_chemical_formula_sum   'Li62 Sn2 P8 S50 I10'
_cell_volume   2575.09331628
_cell_formula_units_Z   2
loop_
 _symmetry_equiv_pos_site_id
 _symmetry_equiv_pos_as_xyz
  1  'x, y, z'
loop_
 _atom_type_symbol
 _atom_type_oxidation_number
  Li+  1.0
  Sn4+  4.0
  P5+  5.0
  S2-  -2.0
  I-  -1.0
loop_
 _atom_site_type_symbol
 _atom_site_label
 _atom_site_symmetry_multiplicity
 _atom_site_fract_x
 _atom_site_fract_y
 _atom_site_fract_z
 _atom_site_occupancy
  Li+  Li0  1  0.49100000  0.18466667  0.29640000  1.0
  Li+  Li1  1  0.49100000  0.18466667  0.49640000  1.0
  Li+  Li2  1  0.49100000  0.18466667  0.69640000  1.0
  Li+  Li3  1  0.75900000  0.64866667  0.49640000  1.0
  Li+  Li4  1  0.75900000  0.64866667  0.69640000  1.0
  Li+  Li5  1  0.25900000  0.64866667  0.69640000  1.0
  Li+  Li6  1  0.99100000  0.18466667  0.00360000  1.0
  Li+  Li7  1  0.99100000  0.64866667  0.29640000  1.0
  Li+  Li8  1  0.49100000  0.64866667  0.49640000  1.0
  Li+  Li9  1  0.49100000  0.64866667  0.89640000  1.0
  Li+  Li10  1  0.75900000  0.64866667  0.20360000  1.0
  Li+  Li11  1  0.75900000  0.64866667  0.40360000  1.0
  Li+  Li12  1  0.75900000  0.64866667  0.80360000  1.0
  Li+  Li13  1  0.75900000  0.18466667  0.00360000  1.0
  Li+  Li14  1  0.99867000  0.26052667  0.11770800  1.0
  Li+  Li15  1  0.99867000  0.26052667  0.51770800  1.0
  Li+  Li16  1  0.99867000  0.26052667  0.71770800  1.0
  Li+  Li17  1  0.70573000  0.66400667  0.28122800  1.0
  Li+  Li18  1  0.70573000  0.66400667  0.68122800  1.0
  Li+  Li19  1  0.20573000  0.66400667  0.08122800  1.0
  Li+  Li20  1  0.20573000  0.66400667  0.48122800  1.0
  Li+  Li21  1  0.99867000  0.07812667  0.80053200  1.0
  Li+  Li22  1  0.49867000  0.07812667  0.20053200  1.0
  Li+  Li23  1  0.49867000  0.07812667  0.40053200  1.0
  Li+  Li24  1  0.99867000  0.07812667  0.08122800  1.0
  Li+  Li25  1  0.99867000  0.07812667  0.48122800  1.0
  Li+  Li26  1  0.99867000  0.07812667  0.68122800  1.0
  Li+  Li27  1  0.99867000  0.07812667  0.88122800  1.0
  Li+  Li28  1  0.49867000  0.07812667  0.88122800  1.0
  Li+  Li29  1  0.99867000  0.66400667  0.11770800  1.0
  Li+  Li30  1  0.99867000  0.66400667  0.91770800  1.0
  Li+  Li31  1  0.49867000  0.66400667  0.31770800  1.0
  Li+  Li32  1  0.99867000  0.66400667  0.08122800  1.0
  Li+  Li33  1  0.99867000  0.66400667  0.68122800  1.0
  Li+  Li34  1  0.49867000  0.66400667  0.08122800  1.0
  Li+  Li35  1  0.49867000  0.66400667  0.88122800  1.0
  Li+  Li36  1  0.79693000  0.66400667  0.11770800  1.0
  Li+  Li37  1  0.79693000  0.66400667  0.31770800  1.0
  Li+  Li38  1  0.79693000  0.66400667  0.71770800  1.0
  Li+  Li39  1  0.29693000  0.66400667  0.31770800  1.0
  Li+  Li40  1  0.29693000  0.66400667  0.71770800  1.0
  Li+  Li41  1  0.29693000  0.66400667  0.91770800  1.0
  Li+  Li42  1  0.29693000  0.66400667  0.20053200  1.0
  Li+  Li43  1  0.29693000  0.66400667  0.40053200  1.0
  Li+  Li44  1  0.99867000  0.26052667  0.20053200  1.0
  Li+  Li45  1  0.99867000  0.26052667  0.40053200  1.0
  Li+  Li46  1  0.99867000  0.26052667  0.60053200  1.0
  Li+  Li47  1  0.99867000  0.26052667  0.80053200  1.0
  Li+  Li48  1  0.49867000  0.26052667  0.60053200  1.0
  Li+  Li49  1  0.70573000  0.66400667  0.20053200  1.0
  Li+  Li50  1  0.70573000  0.66400667  0.40053200  1.0
  Li+  Li51  1  0.70573000  0.66400667  0.60053200  1.0
  Li+  Li52  1  0.70573000  0.66400667  0.80053200  1.0
  Li+  Li53  1  0.20573000  0.66400667  0.00053200  1.0
  Li+  Li54  1  0.20573000  0.66400667  0.80053200  1.0
  Li+  Li55  1  0.79693000  0.07812667  0.00053200  1.0
  Li+  Li56  1  0.79693000  0.07812667  0.20053200  1.0
  Li+  Li57  1  0.79693000  0.07812667  0.40053200  1.0
  Li+  Li58  1  0.29693000  0.07812667  0.20053200  1.0
  Li+  Li59  1  0.29693000  0.07812667  0.60053200  1.0
  Li+  Li60  1  0.70573000  0.26052667  0.80053200  1.0
  Li+  Li61  1  0.20573000  0.26052667  0.00053200  1.0
  Sn4+  Sn62  1  0.75000000  0.16666667  0.70000000  1.0
  Sn4+  Sn63  1  0.25000000  0.16666667  0.50000000  1.0
  P5+  P64  1  0.75000000  0.16666667  0.10000000  1.0
  P5+  P65  1  0.75000000  0.16666667  0.30000000  1.0
  P5+  P66  1  0.75000000  0.16666667  0.50000000  1.0
  P5+  P67  1  0.75000000  0.16666667  0.90000000  1.0
  P5+  P68  1  0.25000000  0.16666667  0.10000000  1.0
  P5+  P69  1  0.25000000  0.16666667  0.30000000  1.0
  P5+  P70  1  0.25000000  0.16666667  0.70000000  1.0
  P5+  P71  1  0.25000000  0.16666667  0.90000000  1.0
  S2-  S72  1  0.87500000  0.41666667  0.05000000  1.0
  S2-  S73  1  0.87500000  0.41666667  0.25000000  1.0
  S2-  S74  1  0.87500000  0.41666667  0.45000000  1.0
  S2-  S75  1  0.87500000  0.41666667  0.65000000  1.0
  S2-  S76  1  0.87500000  0.41666667  0.85000000  1.0
  S2-  S77  1  0.37500000  0.41666667  0.05000000  1.0
  S2-  S78  1  0.37500000  0.41666667  0.25000000  1.0
  S2-  S79  1  0.37500000  0.41666667  0.45000000  1.0
  S2-  S80  1  0.37500000  0.41666667  0.65000000  1.0
  S2-  S81  1  0.37500000  0.41666667  0.85000000  1.0
  S2-  S82  1  0.92620500  0.04919667  0.12349400  1.0
  S2-  S83  1  0.92620500  0.04919667  0.32349400  1.0
  S2-  S84  1  0.92620500  0.04919667  0.52349400  1.0
  S2-  S85  1  0.92620500  0.04919667  0.72349400  1.0
  S2-  S86  1  0.92620500  0.04919667  0.92349400  1.0
  S2-  S87  1  0.42620500  0.04919667  0.12349400  1.0
  S2-  S88  1  0.42620500  0.04919667  0.32349400  1.0
  S2-  S89  1  0.42620500  0.04919667  0.52349400  1.0
  S2-  S90  1  0.42620500  0.04919667  0.72349400  1.0
  S2-  S91  1  0.42620500  0.04919667  0.92349400  1.0
  S2-  S92  1  0.69126500  0.04919667  0.12349400  1.0
  S2-  S93  1  0.69126500  0.04919667  0.32349400  1.0
  S2-  S94  1  0.69126500  0.04919667  0.52349400  1.0
  S2-  S95  1  0.69126500  0.04919667  0.72349400  1.0
  S2-  S96  1  0.69126500  0.04919667  0.92349400  1.0
  S2-  S97  1  0.19126500  0.04919667  0.12349400  1.0
  S2-  S98  1  0.19126500  0.04919667  0.32349400  1.0
  S2-  S99  1  0.19126500  0.04919667  0.52349400  1.0
  S2-  S100  1  0.19126500  0.04919667  0.72349400  1.0
  S2-  S101  1  0.19126500  0.04919667  0.92349400  1.0
  S2-  S102  1  0.69126500  0.04919667  0.02951800  1.0
  S2-  S103  1  0.69126500  0.04919667  0.22951800  1.0
  S2-  S104  1  0.69126500  0.04919667  0.42951800  1.0
  S2-  S105  1  0.69126500  0.04919667  0.62951800  1.0
  S2-  S106  1  0.69126500  0.04919667  0.82951800  1.0
  S2-  S107  1  0.19126500  0.04919667  0.02951800  1.0
  S2-  S108  1  0.19126500  0.04919667  0.22951800  1.0
  S2-  S109  1  0.19126500  0.04919667  0.42951800  1.0
  S2-  S110  1  0.19126500  0.04919667  0.62951800  1.0
  S2-  S111  1  0.19126500  0.04919667  0.82951800  1.0
  S2-  S112  1  0.69126500  0.51907667  0.12349400  1.0
  S2-  S113  1  0.69126500  0.51907667  0.32349400  1.0
  S2-  S114  1  0.69126500  0.51907667  0.52349400  1.0
  S2-  S115  1  0.69126500  0.51907667  0.72349400  1.0
  S2-  S116  1  0.69126500  0.51907667  0.92349400  1.0
  S2-  S117  1  0.19126500  0.51907667  0.12349400  1.0
  S2-  S118  1  0.19126500  0.51907667  0.32349400  1.0
  S2-  S119  1  0.19126500  0.51907667  0.52349400  1.0
  S2-  S120  1  0.19126500  0.51907667  0.72349400  1.0
  S2-  S121  1  0.19126500  0.51907667  0.92349400  1.0
  I-  I122  1  0.00000000  0.66666667  0.00000000  1.0
  I-  I123  1  0.00000000  0.66666667  0.20000000  1.0
  I-  I124  1  0.00000000  0.66666667  0.40000000  1.0
  I-  I125  1  0.00000000  0.66666667  0.60000000  1.0
  I-  I126  1  0.00000000  0.66666667  0.80000000  1.0
  I-  I127  1  0.50000000  0.66666667  0.00000000  1.0
  I-  I128  1  0.50000000  0.66666667  0.20000000  1.0
  I-  I129  1  0.50000000  0.66666667  0.40000000  1.0
  I-  I130  1  0.50000000  0.66666667  0.60000000  1.0
  I-  I131  1  0.50000000  0.66666667  0.80000000  1.0
