# generated using pymatgen
data_Li31SnP4(S5I)5
_symmetry_space_group_name_H-M   'P 1'
_cell_length_a   7.21216390
_cell_length_b   14.42432780
_cell_length_c   36.06081949
_cell_angle_alpha   60.00000000
_cell_angle_beta   60.00000000
_cell_angle_gamma   60.00000000
_symmetry_Int_Tables_number   1
_chemical_formula_structural   Li31SnP4(S5I)5
_chemical_formula_sum   'Li62 Sn2 P8 S50 I10'
_cell_volume   2652.66107857
_cell_formula_units_Z   2
loop_
 _symmetry_equiv_pos_site_id
 _symmetry_equiv_pos_as_xyz
  1  'x, y, z'
loop_
 _atom_type_symbol
 _atom_type_oxidation_number
  Li+  1.0
  Sn4+  4.0
  P5+  5.0
  S2-  -2.0
  I-  -1.0
loop_
 _atom_site_type_symbol
 _atom_site_label
 _atom_site_symmetry_multiplicity
 _atom_site_fract_x
 _atom_site_fract_y
 _atom_site_fract_z
 _atom_site_occupancy
  Li+  Li0  1  0.48200000  0.50900000  0.29640000  1.0
  Li+  Li1  1  0.48200000  0.50900000  0.49640000  1.0
  Li+  Li2  1  0.48200000  0.50900000  0.69640000  1.0
  Li+  Li3  1  0.01800000  0.24100000  0.49640000  1.0
  Li+  Li4  1  0.01800000  0.24100000  0.69640000  1.0
  Li+  Li5  1  0.01800000  0.74100000  0.69640000  1.0
  Li+  Li6  1  0.48200000  0.00900000  0.00360000  1.0
  Li+  Li7  1  0.01800000  0.00900000  0.29640000  1.0
  Li+  Li8  1  0.01800000  0.50900000  0.49640000  1.0
  Li+  Li9  1  0.01800000  0.50900000  0.89640000  1.0
  Li+  Li10  1  0.01800000  0.24100000  0.20360000  1.0
  Li+  Li11  1  0.01800000  0.24100000  0.40360000  1.0
  Li+  Li12  1  0.01800000  0.24100000  0.80360000  1.0
  Li+  Li13  1  0.48200000  0.24100000  0.00360000  1.0
  Li+  Li14  1  0.40614000  0.00133000  0.11770800  1.0
  Li+  Li15  1  0.40614000  0.00133000  0.51770800  1.0
  Li+  Li16  1  0.40614000  0.00133000  0.71770800  1.0
  Li+  Li17  1  0.00266000  0.29427000  0.28122800  1.0
  Li+  Li18  1  0.00266000  0.29427000  0.68122800  1.0
  Li+  Li19  1  0.00266000  0.79427000  0.08122800  1.0
  Li+  Li20  1  0.00266000  0.79427000  0.48122800  1.0
  Li+  Li21  1  0.58854000  0.00133000  0.80053200  1.0
  Li+  Li22  1  0.58854000  0.50133000  0.20053200  1.0
  Li+  Li23  1  0.58854000  0.50133000  0.40053200  1.0
  Li+  Li24  1  0.58854000  0.00133000  0.08122800  1.0
  Li+  Li25  1  0.58854000  0.00133000  0.48122800  1.0
  Li+  Li26  1  0.58854000  0.00133000  0.68122800  1.0
  Li+  Li27  1  0.58854000  0.00133000  0.88122800  1.0
  Li+  Li28  1  0.58854000  0.50133000  0.88122800  1.0
  Li+  Li29  1  0.00266000  0.00133000  0.11770800  1.0
  Li+  Li30  1  0.00266000  0.00133000  0.91770800  1.0
  Li+  Li31  1  0.00266000  0.50133000  0.31770800  1.0
  Li+  Li32  1  0.00266000  0.00133000  0.08122800  1.0
  Li+  Li33  1  0.00266000  0.00133000  0.68122800  1.0
  Li+  Li34  1  0.00266000  0.50133000  0.08122800  1.0
  Li+  Li35  1  0.00266000  0.50133000  0.88122800  1.0
  Li+  Li36  1  0.00266000  0.20307000  0.11770800  1.0
  Li+  Li37  1  0.00266000  0.20307000  0.31770800  1.0
  Li+  Li38  1  0.00266000  0.20307000  0.71770800  1.0
  Li+  Li39  1  0.00266000  0.70307000  0.31770800  1.0
  Li+  Li40  1  0.00266000  0.70307000  0.71770800  1.0
  Li+  Li41  1  0.00266000  0.70307000  0.91770800  1.0
  Li+  Li42  1  0.00266000  0.70307000  0.20053200  1.0
  Li+  Li43  1  0.00266000  0.70307000  0.40053200  1.0
  Li+  Li44  1  0.40614000  0.00133000  0.20053200  1.0
  Li+  Li45  1  0.40614000  0.00133000  0.40053200  1.0
  Li+  Li46  1  0.40614000  0.00133000  0.60053200  1.0
  Li+  Li47  1  0.40614000  0.00133000  0.80053200  1.0
  Li+  Li48  1  0.40614000  0.50133000  0.60053200  1.0
  Li+  Li49  1  0.00266000  0.29427000  0.20053200  1.0
  Li+  Li50  1  0.00266000  0.29427000  0.40053200  1.0
  Li+  Li51  1  0.00266000  0.29427000  0.60053200  1.0
  Li+  Li52  1  0.00266000  0.29427000  0.80053200  1.0
  Li+  Li53  1  0.00266000  0.79427000  0.00053200  1.0
  Li+  Li54  1  0.00266000  0.79427000  0.80053200  1.0
  Li+  Li55  1  0.58854000  0.20307000  0.00053200  1.0
  Li+  Li56  1  0.58854000  0.20307000  0.20053200  1.0
  Li+  Li57  1  0.58854000  0.20307000  0.40053200  1.0
  Li+  Li58  1  0.58854000  0.70307000  0.20053200  1.0
  Li+  Li59  1  0.58854000  0.70307000  0.60053200  1.0
  Li+  Li60  1  0.40614000  0.29427000  0.80053200  1.0
  Li+  Li61  1  0.40614000  0.79427000  0.00053200  1.0
  Sn4+  Sn62  1  0.50000000  0.25000000  0.70000000  1.0
  Sn4+  Sn63  1  0.50000000  0.75000000  0.50000000  1.0
  P5+  P64  1  0.50000000  0.25000000  0.10000000  1.0
  P5+  P65  1  0.50000000  0.25000000  0.30000000  1.0
  P5+  P66  1  0.50000000  0.25000000  0.50000000  1.0
  P5+  P67  1  0.50000000  0.25000000  0.90000000  1.0
  P5+  P68  1  0.50000000  0.75000000  0.10000000  1.0
  P5+  P69  1  0.50000000  0.75000000  0.30000000  1.0
  P5+  P70  1  0.50000000  0.75000000  0.70000000  1.0
  P5+  P71  1  0.50000000  0.75000000  0.90000000  1.0
  S2-  S1  1  0.25000000  0.12500000  0.05000000  1.0
  S2-  S1  1  0.25000000  0.12500000  0.25000000  1.0
  S2-  S1  1  0.25000000  0.12500000  0.45000000  1.0
  S2-  S1  1  0.25000000  0.12500000  0.65000000  1.0
  S2-  S1  1  0.25000000  0.12500000  0.85000000  1.0
  S2-  S1  1  0.25000000  0.62500000  0.05000000  1.0
  S2-  S1  1  0.25000000  0.62500000  0.25000000  1.0
  S2-  S1  1  0.25000000  0.62500000  0.45000000  1.0
  S2-  S1  1  0.25000000  0.62500000  0.65000000  1.0
  S2-  S1  1  0.25000000  0.62500000  0.85000000  1.0
  S2-  S3  1  0.61747000  0.07379500  0.12349400  1.0
  S2-  S3  1  0.61747000  0.07379500  0.32349400  1.0
  S2-  S3  1  0.61747000  0.07379500  0.52349400  1.0
  S2-  S3  1  0.61747000  0.07379500  0.72349400  1.0
  S2-  S3  1  0.61747000  0.07379500  0.92349400  1.0
  S2-  S3  1  0.61747000  0.57379500  0.12349400  1.0
  S2-  S3  1  0.61747000  0.57379500  0.32349400  1.0
  S2-  S3  1  0.61747000  0.57379500  0.52349400  1.0
  S2-  S3  1  0.61747000  0.57379500  0.72349400  1.0
  S2-  S3  1  0.61747000  0.57379500  0.92349400  1.0
  S2-  S3  1  0.61747000  0.30873500  0.12349400  1.0
  S2-  S3  1  0.61747000  0.30873500  0.32349400  1.0
  S2-  S3  1  0.61747000  0.30873500  0.52349400  1.0
  S2-  S3  1  0.61747000  0.30873500  0.72349400  1.0
  S2-  S3  1  0.61747000  0.30873500  0.92349400  1.0
  S2-  S3  1  0.61747000  0.80873500  0.12349400  1.0
  S2-  S3  1  0.61747000  0.80873500  0.32349400  1.0
  S2-  S3  1  0.61747000  0.80873500  0.52349400  1.0
  S2-  S3  1  0.61747000  0.80873500  0.72349400  1.0
  S2-  S3  1  0.61747000  0.80873500  0.92349400  1.0
  S2-  S3  1  0.61747000  0.30873500  0.02951800  1.0
  S2-  S3  1  0.61747000  0.30873500  0.22951800  1.0
  S2-  S3  1  0.61747000  0.30873500  0.42951800  1.0
  S2-  S3  1  0.61747000  0.30873500  0.62951800  1.0
  S2-  S3  1  0.61747000  0.30873500  0.82951800  1.0
  S2-  S3  1  0.61747000  0.80873500  0.02951800  1.0
  S2-  S3  1  0.61747000  0.80873500  0.22951800  1.0
  S2-  S3  1  0.61747000  0.80873500  0.42951800  1.0
  S2-  S3  1  0.61747000  0.80873500  0.62951800  1.0
  S2-  S3  1  0.61747000  0.80873500  0.82951800  1.0
  S2-  S3  1  0.14759000  0.30873500  0.12349400  1.0
  S2-  S3  1  0.14759000  0.30873500  0.32349400  1.0
  S2-  S3  1  0.14759000  0.30873500  0.52349400  1.0
  S2-  S3  1  0.14759000  0.30873500  0.72349400  1.0
  S2-  S3  1  0.14759000  0.30873500  0.92349400  1.0
  S2-  S3  1  0.14759000  0.80873500  0.12349400  1.0
  S2-  S3  1  0.14759000  0.80873500  0.32349400  1.0
  S2-  S3  1  0.14759000  0.80873500  0.52349400  1.0
  S2-  S3  1  0.14759000  0.80873500  0.72349400  1.0
  S2-  S3  1  0.14759000  0.80873500  0.92349400  1.0
  I-  I1  1  0.00000000  0.00000000  0.00000000  1.0
  I-  I1  1  0.00000000  0.00000000  0.20000000  1.0
  I-  I1  1  0.00000000  0.00000000  0.40000000  1.0
  I-  I1  1  0.00000000  0.00000000  0.60000000  1.0
  I-  I1  1  0.00000000  0.00000000  0.80000000  1.0
  I-  I1  1  0.00000000  0.50000000  0.00000000  1.0
  I-  I1  1  0.00000000  0.50000000  0.20000000  1.0
  I-  I1  1  0.00000000  0.50000000  0.40000000  1.0
  I-  I1  1  0.00000000  0.50000000  0.60000000  1.0
  I-  I1  1  0.00000000  0.50000000  0.80000000  1.0
