# generated using pymatgen
data_KNa2Li3Fe2(Si2O5)6
_symmetry_space_group_name_H-M   'P 1'
_cell_length_a   10.06170000
_cell_length_b   14.08320000
_cell_length_c   10.06170000
_cell_angle_alpha   90.00000000
_cell_angle_beta   60.00000000
_cell_angle_gamma   90.00000000
_symmetry_Int_Tables_number   1
_chemical_formula_structural   KNa2Li3Fe2(Si2O5)6
_chemical_formula_sum   'K2 Na4 Li6 Fe4 Si24 O60'
_cell_volume   1234.73769571
_cell_formula_units_Z   2
loop_
 _symmetry_equiv_pos_site_id
 _symmetry_equiv_pos_as_xyz
  1  'x, y, z'
loop_
 _atom_type_symbol
 _atom_type_oxidation_number
  K+  1.0
  Na+  1.0
  Li+  1.0
  Fe3+  3.0
  Si4+  4.0
  O2-  -2.0
loop_
 _atom_site_type_symbol
 _atom_site_label
 _atom_site_symmetry_multiplicity
 _atom_site_fract_x
 _atom_site_fract_y
 _atom_site_fract_z
 _atom_site_occupancy
  K+  K0  1  0.00000000  0.75000000  0.75000000  1.0
  K+  K1  1  0.00001913  0.24823586  0.75092886  1.0
  Na+  Na2  1  0.66666667  0.48380000  0.41666667  1.0
  Na+  Na3  1  0.33333333  0.01620000  0.08333333  1.0
  Na+  Na4  1  0.33009369  0.48186399  0.08254928  1.0
  Na+  Na5  1  0.66471486  0.01337996  0.41700860  1.0
  Li+  Li6  1  0.50025965  0.75072678  0.25060105  1.0
  Li+  Li7  1  0.00000000  0.75000000  0.25000000  1.0
  Li+  Li8  1  0.50000000  0.75000000  0.75000000  1.0
  Li+  Li9  1  0.50000000  0.25000000  0.25000000  1.0
  Li+  Li10  1  0.00096119  0.24611047  0.25307132  1.0
  Li+  Li11  1  0.50000000  0.25000000  0.75000000  1.0
  Fe3+  Fe12  1  0.66666667  0.75000000  0.41666667  1.0
  Fe3+  Fe13  1  0.66666667  0.25000000  0.41666667  1.0
  Fe3+  Fe14  1  0.33604554  0.25233677  0.08090302  1.0
  Fe3+  Fe15  1  0.33333333  0.75000000  0.08333333  1.0
  Si4+  Si16  1  0.76320000  0.88720000  0.10560000  1.0
  Si4+  Si17  1  0.88120000  0.88720000  0.51320000  1.0
  Si4+  Si18  1  0.35560000  0.88720000  0.63120000  1.0
  Si4+  Si19  1  0.76320000  0.11280000  0.10560000  1.0
  Si4+  Si20  1  0.88120000  0.11280000  0.51320000  1.0
  Si4+  Si21  1  0.35560000  0.11280000  0.63120000  1.0
  Si4+  Si22  1  0.11880000  0.38720000  0.39440000  1.0
  Si4+  Si23  1  0.64440000  0.38720000  0.98680000  1.0
  Si4+  Si24  1  0.23680000  0.38720000  0.86880000  1.0
  Si4+  Si25  1  0.11880000  0.61280000  0.39440000  1.0
  Si4+  Si26  1  0.64130720  0.61414085  0.99169689  1.0
  Si4+  Si27  1  0.23672991  0.61129207  0.87223705  1.0
  Si4+  Si28  1  0.23680000  0.11280000  0.39440000  1.0
  Si4+  Si29  1  0.11880000  0.11280000  0.98680000  1.0
  Si4+  Si30  1  0.64440000  0.11280000  0.86880000  1.0
  Si4+  Si31  1  0.23680000  0.88720000  0.39440000  1.0
  Si4+  Si32  1  0.11880000  0.88720000  0.98680000  1.0
  Si4+  Si33  1  0.64440000  0.88720000  0.86880000  1.0
  Si4+  Si34  1  0.88525672  0.61439373  0.10624089  1.0
  Si4+  Si35  1  0.35560000  0.61280000  0.51320000  1.0
  Si4+  Si36  1  0.76320000  0.61280000  0.63120000  1.0
  Si4+  Si37  1  0.88120000  0.38720000  0.10560000  1.0
  Si4+  Si38  1  0.35560000  0.38720000  0.51320000  1.0
  Si4+  Si39  1  0.76954011  0.38405124  0.63149201  1.0
  O2-  O40  1  0.86360000  0.50000000  0.14580000  1.0
  O2-  O41  1  0.74060000  0.50000000  0.61360000  1.0
  O2-  O42  1  0.39153304  0.50038665  0.48660038  1.0
  O2-  O43  1  0.25940000  0.00000000  0.35420000  1.0
  O2-  O44  1  0.60420000  0.00000000  0.88640000  1.0
  O2-  O45  1  0.13640000  0.00000000  0.00940000  1.0
  O2-  O46  1  0.13640000  0.50000000  0.35420000  1.0
  O2-  O47  1  0.25940000  0.50000000  0.88640000  1.0
  O2-  O48  1  0.60043133  0.50091562  0.00703583  1.0
  O2-  O49  1  0.74318131  0.99997886  0.14369996  1.0
  O2-  O50  1  0.39580000  0.00000000  0.61360000  1.0
  O2-  O51  1  0.86360000  0.00000000  0.49060000  1.0
  O2-  O52  1  0.77807887  0.63318870  0.02892665  1.0
  O2-  O53  1  0.94490000  0.63720000  0.52840000  1.0
  O2-  O54  1  0.27529145  0.63865800  0.69681981  1.0
  O2-  O55  1  0.77840000  0.36280000  0.02670000  1.0
  O2-  O56  1  0.94490000  0.36280000  0.52840000  1.0
  O2-  O57  1  0.27670000  0.36280000  0.69490000  1.0
  O2-  O58  1  0.05559701  0.13441202  0.47198122  1.0
  O2-  O59  1  0.72330000  0.13720000  0.97160000  1.0
  O2-  O60  1  0.22160000  0.13720000  0.80510000  1.0
  O2-  O61  1  0.05705549  0.86503536  0.47627675  1.0
  O2-  O62  1  0.72330000  0.86280000  0.97160000  1.0
  O2-  O63  1  0.22160000  0.86280000  0.80510000  1.0
  O2-  O64  1  0.21848216  0.36037249  0.47270381  1.0
  O2-  O65  1  0.05510000  0.36280000  0.97160000  1.0
  O2-  O66  1  0.72040269  0.36447445  0.80420683  1.0
  O2-  O67  1  0.22160000  0.63720000  0.47330000  1.0
  O2-  O68  1  0.05510000  0.63720000  0.97160000  1.0
  O2-  O69  1  0.72330000  0.63720000  0.80510000  1.0
  O2-  O70  1  0.94490000  0.86280000  0.02670000  1.0
  O2-  O71  1  0.27654599  0.86171694  0.52765326  1.0
  O2-  O72  1  0.77840000  0.86280000  0.69490000  1.0
  O2-  O73  1  0.94490000  0.13720000  0.02670000  1.0
  O2-  O74  1  0.27670000  0.13720000  0.52840000  1.0
  O2-  O75  1  0.77840000  0.13720000  0.69490000  1.0
  O2-  O76  1  0.83550000  0.67000000  0.25670000  1.0
  O2-  O77  1  0.65780000  0.67000000  0.58550000  1.0
  O2-  O78  1  0.50670000  0.67000000  0.40780000  1.0
  O2-  O79  1  0.83550000  0.33000000  0.25670000  1.0
  O2-  O80  1  0.65780000  0.33000000  0.58550000  1.0
  O2-  O81  1  0.50670000  0.33000000  0.40780000  1.0
  O2-  O82  1  0.34220000  0.17000000  0.24330000  1.0
  O2-  O83  1  0.49473682  0.17097342  0.91399897  1.0
  O2-  O84  1  0.16450000  0.17000000  0.09220000  1.0
  O2-  O85  1  0.34220000  0.83000000  0.24330000  1.0
  O2-  O86  1  0.49648096  0.83254509  0.91280039  1.0
  O2-  O87  1  0.16450000  0.83000000  0.09220000  1.0
  O2-  O88  1  0.16450000  0.33000000  0.24330000  1.0
  O2-  O89  1  0.34220000  0.33000000  0.91450000  1.0
  O2-  O90  1  0.49277884  0.33084475  0.08981079  1.0
  O2-  O91  1  0.16450000  0.67000000  0.24330000  1.0
  O2-  O92  1  0.34587786  0.66821624  0.91532871  1.0
  O2-  O93  1  0.49330000  0.67000000  0.09220000  1.0
  O2-  O94  1  0.65780000  0.83000000  0.25670000  1.0
  O2-  O95  1  0.50670000  0.83000000  0.58550000  1.0
  O2-  O96  1  0.83429518  0.83217761  0.41287101  1.0
  O2-  O97  1  0.65780000  0.17000000  0.25670000  1.0
  O2-  O98  1  0.50670000  0.17000000  0.58550000  1.0
  O2-  O99  1  0.83550000  0.17000000  0.40780000  1.0
