# generated using pymatgen
data_KNa2Li3Fe2(Si2O5)6
_symmetry_space_group_name_H-M   'P 1'
_cell_length_a   10.01091764
_cell_length_b   10.01091764
_cell_length_c   14.01212074
_cell_angle_alpha   90.00000000
_cell_angle_beta   90.00000000
_cell_angle_gamma   120.00000000
_symmetry_Int_Tables_number   1
_chemical_formula_structural   KNa2Li3Fe2(Si2O5)6
_chemical_formula_sum   'K2 Na4 Li6 Fe4 Si24 O60'
_cell_volume   1216.13637761
_cell_formula_units_Z   2
loop_
 _symmetry_equiv_pos_site_id
 _symmetry_equiv_pos_as_xyz
  1  'x, y, z'
loop_
 _atom_type_symbol
 _atom_type_oxidation_number
  K+  1.0
  Na+  1.0
  Li+  1.0
  Fe3+  3.0
  Si4+  4.0
  O2-  -2.0
loop_
 _atom_site_type_symbol
 _atom_site_label
 _atom_site_symmetry_multiplicity
 _atom_site_fract_x
 _atom_site_fract_y
 _atom_site_fract_z
 _atom_site_occupancy
  K+  K0  1  0.00000000  0.66666667  0.25000000  1.0
  K+  K1  1  0.00000000  0.66666667  0.75000000  1.0
  Na+  Na2  1  0.66666667  0.00000000  0.51620000  1.0
  Na+  Na3  1  0.33333333  0.33333333  0.98380000  1.0
  Na+  Na4  1  0.33333333  0.33333333  0.51620000  1.0
  Na+  Na5  1  0.66666667  0.00000000  0.98380000  1.0
  Li+  Li6  1  0.50000000  0.16666667  0.25000000  1.0
  Li+  Li7  1  0.50000000  0.66666667  0.25000000  1.0
  Li+  Li8  1  0.00000000  0.16666667  0.25000000  1.0
  Li+  Li9  1  0.50000000  0.16666667  0.75000000  1.0
  Li+  Li10  1  0.50000000  0.66666667  0.75000000  1.0
  Li+  Li11  1  0.00000000  0.16666667  0.75000000  1.0
  Fe3+  Fe12  1  0.66666667  0.00000000  0.25000000  1.0
  Fe3+  Fe13  1  0.66666667  0.00000000  0.75000000  1.0
  Fe3+  Fe14  1  0.33333333  0.33333333  0.75000000  1.0
  Fe3+  Fe15  1  0.33333333  0.33333333  0.25000000  1.0
  Si4+  Si16  1  0.35560000  0.90346667  0.11280000  1.0
  Si4+  Si17  1  0.76320000  0.78546667  0.11280000  1.0
  Si4+  Si18  1  0.88120000  0.31106667  0.11280000  1.0
  Si4+  Si19  1  0.35560000  0.90346667  0.88720000  1.0
  Si4+  Si20  1  0.76320000  0.78546667  0.88720000  1.0
  Si4+  Si21  1  0.88120000  0.31106667  0.88720000  1.0
  Si4+  Si22  1  0.64440000  0.54786667  0.61280000  1.0
  Si4+  Si23  1  0.23680000  0.02226667  0.61280000  1.0
  Si4+  Si24  1  0.11880000  0.42986667  0.61280000  1.0
  Si4+  Si25  1  0.64440000  0.54786667  0.38720000  1.0
  Si4+  Si26  1  0.23680000  0.02226667  0.38720000  1.0
  Si4+  Si27  1  0.11880000  0.42986667  0.38720000  1.0
  Si4+  Si28  1  0.64440000  0.42986667  0.88720000  1.0
  Si4+  Si29  1  0.23680000  0.54786667  0.88720000  1.0
  Si4+  Si30  1  0.11880000  0.02226667  0.88720000  1.0
  Si4+  Si31  1  0.64440000  0.42986667  0.11280000  1.0
  Si4+  Si32  1  0.23680000  0.54786667  0.11280000  1.0
  Si4+  Si33  1  0.11880000  0.02226667  0.11280000  1.0
  Si4+  Si34  1  0.35560000  0.78546667  0.38720000  1.0
  Si4+  Si35  1  0.76320000  0.31106667  0.38720000  1.0
  Si4+  Si36  1  0.88120000  0.90346667  0.38720000  1.0
  Si4+  Si37  1  0.35560000  0.78546667  0.61280000  1.0
  Si4+  Si38  1  0.76320000  0.31106667  0.61280000  1.0
  Si4+  Si39  1  0.88120000  0.90346667  0.61280000  1.0
  O2-  O40  1  0.39580000  0.80306667  0.50000000  1.0
  O2-  O41  1  0.86360000  0.92606667  0.50000000  1.0
  O2-  O42  1  0.74060000  0.27086667  0.50000000  1.0
  O2-  O43  1  0.60420000  0.40726667  0.00000000  1.0
  O2-  O44  1  0.13640000  0.06246667  0.00000000  1.0
  O2-  O45  1  0.25940000  0.53026667  0.00000000  1.0
  O2-  O46  1  0.60420000  0.53026667  0.50000000  1.0
  O2-  O47  1  0.13640000  0.40726667  0.50000000  1.0
  O2-  O48  1  0.25940000  0.06246667  0.50000000  1.0
  O2-  O49  1  0.39580000  0.92606667  0.00000000  1.0
  O2-  O50  1  0.86360000  0.27086667  0.00000000  1.0
  O2-  O51  1  0.74060000  0.80306667  0.00000000  1.0
  O2-  O52  1  0.27670000  0.88826667  0.36280000  1.0
  O2-  O53  1  0.77840000  0.72176667  0.36280000  1.0
  O2-  O54  1  0.94490000  0.38996667  0.36280000  1.0
  O2-  O55  1  0.27670000  0.88826667  0.63720000  1.0
  O2-  O56  1  0.77840000  0.72176667  0.63720000  1.0
  O2-  O57  1  0.94490000  0.38996667  0.63720000  1.0
  O2-  O58  1  0.72330000  0.61156667  0.86280000  1.0
  O2-  O59  1  0.22160000  0.94336667  0.86280000  1.0
  O2-  O60  1  0.05510000  0.44506667  0.86280000  1.0
  O2-  O61  1  0.72330000  0.61156667  0.13720000  1.0
  O2-  O62  1  0.22160000  0.94336667  0.13720000  1.0
  O2-  O63  1  0.05510000  0.44506667  0.13720000  1.0
  O2-  O64  1  0.72330000  0.44506667  0.63720000  1.0
  O2-  O65  1  0.22160000  0.61156667  0.63720000  1.0
  O2-  O66  1  0.05510000  0.94336667  0.63720000  1.0
  O2-  O67  1  0.72330000  0.44506667  0.36280000  1.0
  O2-  O68  1  0.22160000  0.61156667  0.36280000  1.0
  O2-  O69  1  0.05510000  0.94336667  0.36280000  1.0
  O2-  O70  1  0.27670000  0.72176667  0.13720000  1.0
  O2-  O71  1  0.77840000  0.38996667  0.13720000  1.0
  O2-  O72  1  0.94490000  0.88826667  0.13720000  1.0
  O2-  O73  1  0.27670000  0.72176667  0.86280000  1.0
  O2-  O74  1  0.77840000  0.38996667  0.86280000  1.0
  O2-  O75  1  0.94490000  0.88826667  0.86280000  1.0
  O2-  O76  1  0.50670000  0.83116667  0.33000000  1.0
  O2-  O77  1  0.83550000  0.00886667  0.33000000  1.0
  O2-  O78  1  0.65780000  0.15996667  0.33000000  1.0
  O2-  O79  1  0.50670000  0.83116667  0.67000000  1.0
  O2-  O80  1  0.83550000  0.00886667  0.67000000  1.0
  O2-  O81  1  0.65780000  0.15996667  0.67000000  1.0
  O2-  O82  1  0.49330000  0.32446667  0.83000000  1.0
  O2-  O83  1  0.16450000  0.17336667  0.83000000  1.0
  O2-  O84  1  0.34220000  0.50216667  0.83000000  1.0
  O2-  O85  1  0.49330000  0.32446667  0.17000000  1.0
  O2-  O86  1  0.16450000  0.17336667  0.17000000  1.0
  O2-  O87  1  0.34220000  0.50216667  0.17000000  1.0
  O2-  O88  1  0.49330000  0.50216667  0.67000000  1.0
  O2-  O89  1  0.16450000  0.32446667  0.67000000  1.0
  O2-  O90  1  0.34220000  0.17336667  0.67000000  1.0
  O2-  O91  1  0.49330000  0.50216667  0.33000000  1.0
  O2-  O92  1  0.16450000  0.32446667  0.33000000  1.0
  O2-  O93  1  0.34220000  0.17336667  0.33000000  1.0
  O2-  O94  1  0.50670000  0.00886667  0.17000000  1.0
  O2-  O95  1  0.83550000  0.15996667  0.17000000  1.0
  O2-  O96  1  0.65780000  0.83116667  0.17000000  1.0
  O2-  O97  1  0.50670000  0.00886667  0.83000000  1.0
  O2-  O98  1  0.83550000  0.15996667  0.83000000  1.0
  O2-  O99  1  0.65780000  0.83116667  0.83000000  1.0
