# generated using pymatgen
data_KNa2Li3Fe2(Si2O5)6
_symmetry_space_group_name_H-M   'P 1'
_cell_length_a   10.06170000
_cell_length_b   10.06170000
_cell_length_c   14.08320000
_cell_angle_alpha   90.00000000
_cell_angle_beta   90.00000000
_cell_angle_gamma   120.00000000
_symmetry_Int_Tables_number   1
_chemical_formula_structural   KNa2Li3Fe2(Si2O5)6
_chemical_formula_sum   'K2 Na4 Li6 Fe4 Si24 O60'
_cell_volume   1234.73769571
_cell_formula_units_Z   2
loop_
 _symmetry_equiv_pos_site_id
 _symmetry_equiv_pos_as_xyz
  1  'x, y, z'
loop_
 _atom_type_symbol
 _atom_type_oxidation_number
  K+  1.0
  Na+  1.0
  Li+  1.0
  Fe3+  3.0
  Si4+  4.0
  O2-  -2.0
loop_
 _atom_site_type_symbol
 _atom_site_label
 _atom_site_symmetry_multiplicity
 _atom_site_fract_x
 _atom_site_fract_y
 _atom_site_fract_z
 _atom_site_occupancy
  K+  K1  1  0.00000000  0.00000000  0.25000000  1.0
  K+  K1  1  0.00000000  0.00000000  0.75000000  1.0
  Na+  Na2  1  0.66666667  0.33333333  0.51620000  1.0
  Na+  Na3  1  0.33333333  0.66666667  0.98380000  1.0
  Na+  Na4  1  0.33333333  0.66666667  0.51620000  1.0
  Na+  Na5  1  0.66666667  0.33333333  0.98380000  1.0
  Li+  Li1  1  0.50000000  0.50000000  0.25000000  1.0
  Li+  Li1  1  0.00000000  0.50000000  0.25000000  1.0
  Li+  Li1  1  0.50000000  0.00000000  0.25000000  1.0
  Li+  Li1  1  0.50000000  0.50000000  0.75000000  1.0
  Li+  Li1  1  0.00000000  0.50000000  0.75000000  1.0
  Li+  Li1  1  0.50000000  0.00000000  0.75000000  1.0
  Fe3+  Fe1  1  0.66666667  0.33333333  0.25000000  1.0
  Fe3+  Fe1  1  0.66666667  0.33333333  0.75000000  1.0
  Fe3+  Fe1  1  0.33333333  0.66666667  0.75000000  1.0
  Fe3+  Fe1  1  0.33333333  0.66666667  0.25000000  1.0
  Si4+  Si1  1  0.76320000  0.64440000  0.11280000  1.0
  Si4+  Si1  1  0.88120000  0.23680000  0.11280000  1.0
  Si4+  Si1  1  0.35560000  0.11880000  0.11280000  1.0
  Si4+  Si1  1  0.76320000  0.64440000  0.88720000  1.0
  Si4+  Si1  1  0.88120000  0.23680000  0.88720000  1.0
  Si4+  Si1  1  0.35560000  0.11880000  0.88720000  1.0
  Si4+  Si1  1  0.11880000  0.35560000  0.61280000  1.0
  Si4+  Si1  1  0.64440000  0.76320000  0.61280000  1.0
  Si4+  Si1  1  0.23680000  0.88120000  0.61280000  1.0
  Si4+  Si1  1  0.11880000  0.35560000  0.38720000  1.0
  Si4+  Si1  1  0.64440000  0.76320000  0.38720000  1.0
  Si4+  Si1  1  0.23680000  0.88120000  0.38720000  1.0
  Si4+  Si1  1  0.23680000  0.35560000  0.88720000  1.0
  Si4+  Si1  1  0.11880000  0.76320000  0.88720000  1.0
  Si4+  Si1  1  0.64440000  0.88120000  0.88720000  1.0
  Si4+  Si1  1  0.23680000  0.35560000  0.11280000  1.0
  Si4+  Si1  1  0.11880000  0.76320000  0.11280000  1.0
  Si4+  Si1  1  0.64440000  0.88120000  0.11280000  1.0
  Si4+  Si1  1  0.88120000  0.64440000  0.38720000  1.0
  Si4+  Si1  1  0.35560000  0.23680000  0.38720000  1.0
  Si4+  Si1  1  0.76320000  0.11880000  0.38720000  1.0
  Si4+  Si1  1  0.88120000  0.64440000  0.61280000  1.0
  Si4+  Si1  1  0.35560000  0.23680000  0.61280000  1.0
  Si4+  Si1  1  0.76320000  0.11880000  0.61280000  1.0
  O2-  O1  1  0.86360000  0.60420000  0.50000000  1.0
  O2-  O1  1  0.74060000  0.13640000  0.50000000  1.0
  O2-  O1  1  0.39580000  0.25940000  0.50000000  1.0
  O2-  O1  1  0.25940000  0.39580000  0.00000000  1.0
  O2-  O1  1  0.60420000  0.86360000  0.00000000  1.0
  O2-  O1  1  0.13640000  0.74060000  0.00000000  1.0
  O2-  O1  1  0.13640000  0.39580000  0.50000000  1.0
  O2-  O1  1  0.25940000  0.86360000  0.50000000  1.0
  O2-  O1  1  0.60420000  0.74060000  0.50000000  1.0
  O2-  O1  1  0.74060000  0.60420000  0.00000000  1.0
  O2-  O1  1  0.39580000  0.13640000  0.00000000  1.0
  O2-  O1  1  0.86360000  0.25940000  0.00000000  1.0
  O2-  O2  1  0.77840000  0.72330000  0.36280000  1.0
  O2-  O2  1  0.94490000  0.22160000  0.36280000  1.0
  O2-  O2  1  0.27670000  0.05510000  0.36280000  1.0
  O2-  O2  1  0.77840000  0.72330000  0.63720000  1.0
  O2-  O2  1  0.94490000  0.22160000  0.63720000  1.0
  O2-  O2  1  0.27670000  0.05510000  0.63720000  1.0
  O2-  O2  1  0.05510000  0.27670000  0.86280000  1.0
  O2-  O2  1  0.72330000  0.77840000  0.86280000  1.0
  O2-  O2  1  0.22160000  0.94490000  0.86280000  1.0
  O2-  O2  1  0.05510000  0.27670000  0.13720000  1.0
  O2-  O2  1  0.72330000  0.77840000  0.13720000  1.0
  O2-  O2  1  0.22160000  0.94490000  0.13720000  1.0
  O2-  O2  1  0.22160000  0.27670000  0.63720000  1.0
  O2-  O2  1  0.05510000  0.77840000  0.63720000  1.0
  O2-  O2  1  0.72330000  0.94490000  0.63720000  1.0
  O2-  O2  1  0.22160000  0.27670000  0.36280000  1.0
  O2-  O2  1  0.05510000  0.77840000  0.36280000  1.0
  O2-  O2  1  0.72330000  0.94490000  0.36280000  1.0
  O2-  O2  1  0.94490000  0.72330000  0.13720000  1.0
  O2-  O2  1  0.27670000  0.22160000  0.13720000  1.0
  O2-  O2  1  0.77840000  0.05510000  0.13720000  1.0
  O2-  O2  1  0.94490000  0.72330000  0.86280000  1.0
  O2-  O2  1  0.27670000  0.22160000  0.86280000  1.0
  O2-  O2  1  0.77840000  0.05510000  0.86280000  1.0
  O2-  O3  1  0.83550000  0.49330000  0.33000000  1.0
  O2-  O3  1  0.65780000  0.16450000  0.33000000  1.0
  O2-  O3  1  0.50670000  0.34220000  0.33000000  1.0
  O2-  O3  1  0.83550000  0.49330000  0.67000000  1.0
  O2-  O3  1  0.65780000  0.16450000  0.67000000  1.0
  O2-  O3  1  0.50670000  0.34220000  0.67000000  1.0
  O2-  O3  1  0.34220000  0.50670000  0.83000000  1.0
  O2-  O3  1  0.49330000  0.83550000  0.83000000  1.0
  O2-  O3  1  0.16450000  0.65780000  0.83000000  1.0
  O2-  O3  1  0.34220000  0.50670000  0.17000000  1.0
  O2-  O3  1  0.49330000  0.83550000  0.17000000  1.0
  O2-  O3  1  0.16450000  0.65780000  0.17000000  1.0
  O2-  O3  1  0.16450000  0.50670000  0.67000000  1.0
  O2-  O3  1  0.34220000  0.83550000  0.67000000  1.0
  O2-  O3  1  0.49330000  0.65780000  0.67000000  1.0
  O2-  O3  1  0.16450000  0.50670000  0.33000000  1.0
  O2-  O3  1  0.34220000  0.83550000  0.33000000  1.0
  O2-  O3  1  0.49330000  0.65780000  0.33000000  1.0
  O2-  O3  1  0.65780000  0.49330000  0.17000000  1.0
  O2-  O3  1  0.50670000  0.16450000  0.17000000  1.0
  O2-  O3  1  0.83550000  0.34220000  0.17000000  1.0
  O2-  O3  1  0.65780000  0.49330000  0.83000000  1.0
  O2-  O3  1  0.50670000  0.16450000  0.83000000  1.0
  O2-  O3  1  0.83550000  0.34220000  0.83000000  1.0
