# generated using pymatgen
data_Li13P2S11Cl
_symmetry_space_group_name_H-M   'P 1'
_cell_length_a   13.99067335
_cell_length_b   13.99067335
_cell_length_c   13.99067335
_cell_angle_alpha   60.00000000
_cell_angle_beta   120.00000000
_cell_angle_gamma   120.00000000
_symmetry_Int_Tables_number   1
_chemical_formula_structural   Li13P2S11Cl
_chemical_formula_sum   'Li52 P8 S44 Cl4'
_cell_volume   1936.42576714
_cell_formula_units_Z   4
loop_
 _symmetry_equiv_pos_site_id
 _symmetry_equiv_pos_as_xyz
  1  'x, y, z'
loop_
 _atom_type_symbol
 _atom_type_oxidation_number
  Li+  1.0
  P5+  5.0
  S2-  -2.0
  Cl-  -1.0
loop_
 _atom_site_type_symbol
 _atom_site_label
 _atom_site_symmetry_multiplicity
 _atom_site_fract_x
 _atom_site_fract_y
 _atom_site_fract_z
 _atom_site_occupancy
  Li+  Li0  1  0.11405861  0.67035838  0.13812016  1.0
  Li+  Li1  1  0.94800000  0.88800000  0.42200000  1.0
  Li+  Li2  1  0.94737290  0.38730878  0.92347697  1.0
  Li+  Li3  1  0.44800000  0.17200000  0.63800000  1.0
  Li+  Li4  1  0.94800000  0.17200000  0.63800000  1.0
  Li+  Li5  1  0.94800000  0.38800000  0.63800000  1.0
  Li+  Li6  1  0.11200000  0.88800000  0.80200000  1.0
  Li+  Li7  1  0.32800000  0.55200000  0.13800000  1.0
  Li+  Li8  1  0.82800000  0.55200000  0.63800000  1.0
  Li+  Li9  1  0.32800000  0.88800000  0.13800000  1.0
  Li+  Li10  1  0.82800000  0.88800000  0.63800000  1.0
  Li+  Li11  1  0.17255000  0.69465000  0.73895000  1.0
  Li+  Li12  1  0.17019887  0.69673573  0.23654330  1.0
  Li+  Li13  1  0.17255000  0.19465000  0.23895000  1.0
  Li+  Li14  1  0.67255000  0.69465000  0.73895000  1.0
  Li+  Li15  1  0.01105000  0.82745000  0.94465000  1.0
  Li+  Li16  1  0.51105000  0.82745000  0.94465000  1.0
  Li+  Li17  1  0.30535000  0.48895000  0.73895000  1.0
  Li+  Li18  1  0.30496533  0.98969057  0.23874852  1.0
  Li+  Li19  1  0.80668521  0.99158303  0.73523012  1.0
  Li+  Li20  1  0.80535000  0.98895000  0.23895000  1.0
  Li+  Li21  1  0.30535000  0.82745000  0.73895000  1.0
  Li+  Li22  1  0.30535000  0.32745000  0.73895000  1.0
  Li+  Li23  1  0.80423328  0.33019092  0.74137972  1.0
  Li+  Li24  1  0.80535000  0.32745000  0.23895000  1.0
  Li+  Li25  1  0.01105000  0.69465000  0.73895000  1.0
  Li+  Li26  1  0.01105000  0.69465000  0.23895000  1.0
  Li+  Li27  1  0.51105000  0.19465000  0.73895000  1.0
  Li+  Li28  1  0.51105000  0.19465000  0.23895000  1.0
  Li+  Li29  1  0.01105000  0.82745000  0.23895000  1.0
  Li+  Li30  1  0.51326343  0.32795257  0.73877662  1.0
  Li+  Li31  1  0.51105000  0.82745000  0.23895000  1.0
  Li+  Li32  1  0.51221970  0.32726228  0.23781995  1.0
  Li+  Li33  1  0.00798679  0.19489509  0.07252787  1.0
  Li+  Li34  1  0.51105000  0.69465000  0.57745000  1.0
  Li+  Li35  1  0.01105000  0.48895000  0.07745000  1.0
  Li+  Li36  1  0.51105000  0.48895000  0.57745000  1.0
  Li+  Li37  1  0.51105000  0.98895000  0.07745000  1.0
  Li+  Li38  1  0.17505759  0.98905260  0.74286452  1.0
  Li+  Li39  1  0.17467718  0.48652155  0.74068744  1.0
  Li+  Li40  1  0.67255000  0.98895000  0.73895000  1.0
  Li+  Li41  1  0.67255000  0.48895000  0.23895000  1.0
  Li+  Li42  1  0.01105000  0.98895000  0.44465000  1.0
  Li+  Li43  1  0.51105000  0.48895000  0.94465000  1.0
  Li+  Li44  1  0.30424096  0.98784811  0.57528218  1.0
  Li+  Li45  1  0.80535000  0.98895000  0.57745000  1.0
  Li+  Li46  1  0.80535000  0.48895000  0.57745000  1.0
  Li+  Li47  1  0.80535000  0.98895000  0.07745000  1.0
  Li+  Li48  1  0.80535000  0.48895000  0.07745000  1.0
  Li+  Li49  1  0.17167170  0.48699808  0.94364168  1.0
  Li+  Li50  1  0.66928426  0.98661153  0.44643440  1.0
  Li+  Li51  1  0.67051845  0.48789504  0.44765090  1.0
  P5+  P52  1  0.25000000  0.75000000  0.50000000  1.0
  P5+  P53  1  0.25000000  0.25000000  0.50000000  1.0
  P5+  P54  1  0.24530142  0.75207443  0.00079378  1.0
  P5+  P55  1  0.25000000  0.25000000  0.00000000  1.0
  P5+  P56  1  0.75040413  0.75012691  0.49746363  1.0
  P5+  P57  1  0.75000000  0.25000000  0.50000000  1.0
  P5+  P58  1  0.75000000  0.75000000  0.00000000  1.0
  P5+  P59  1  0.75000000  0.25000000  0.00000000  1.0
  S2-  S60  1  0.30960000  0.69040000  0.67880000  1.0
  S2-  S61  1  0.30862246  0.19235139  0.67764959  1.0
  S2-  S62  1  0.30960000  0.69040000  0.17880000  1.0
  S2-  S63  1  0.30960000  0.19040000  0.17880000  1.0
  S2-  S64  1  0.80810903  0.68648881  0.67995102  1.0
  S2-  S65  1  0.80960000  0.19040000  0.67880000  1.0
  S2-  S66  1  0.80960000  0.69040000  0.17880000  1.0
  S2-  S67  1  0.80556169  0.19366734  0.18071383  1.0
  S2-  S68  1  0.31447087  0.68662492  0.43825464  1.0
  S2-  S69  1  0.30960000  0.19040000  0.44040000  1.0
  S2-  S70  1  0.30960000  0.69040000  0.94040000  1.0
  S2-  S71  1  0.30960000  0.19040000  0.94040000  1.0
  S2-  S72  1  0.80960000  0.69040000  0.44040000  1.0
  S2-  S73  1  0.80960000  0.19040000  0.44040000  1.0
  S2-  S74  1  0.80960000  0.69040000  0.94040000  1.0
  S2-  S75  1  0.80960000  0.19040000  0.94040000  1.0
  S2-  S76  1  0.30960000  0.92880000  0.44040000  1.0
  S2-  S77  1  0.30960000  0.42880000  0.44040000  1.0
  S2-  S78  1  0.30960000  0.92880000  0.94040000  1.0
  S2-  S79  1  0.30960000  0.42880000  0.94040000  1.0
  S2-  S80  1  0.80960000  0.92880000  0.44040000  1.0
  S2-  S81  1  0.80960000  0.42880000  0.44040000  1.0
  S2-  S82  1  0.80960000  0.92880000  0.94040000  1.0
  S2-  S83  1  0.80960000  0.42880000  0.94040000  1.0
  S2-  S84  1  0.07120000  0.69040000  0.44040000  1.0
  S2-  S85  1  0.07275016  0.18961069  0.44558917  1.0
  S2-  S86  1  0.07367428  0.69078602  0.93791179  1.0
  S2-  S87  1  0.07120000  0.19040000  0.94040000  1.0
  S2-  S88  1  0.57120000  0.69040000  0.44040000  1.0
  S2-  S89  1  0.57120000  0.19040000  0.44040000  1.0
  S2-  S90  1  0.57120000  0.69040000  0.94040000  1.0
  S2-  S91  1  0.57120000  0.19040000  0.94040000  1.0
  S2-  S92  1  0.12910838  0.87761905  0.62619126  1.0
  S2-  S93  1  0.12500000  0.37500000  0.62500000  1.0
  S2-  S94  1  0.12500000  0.87500000  0.12500000  1.0
  S2-  S95  1  0.12500000  0.37500000  0.12500000  1.0
  S2-  S96  1  0.62500000  0.87500000  0.62500000  1.0
  S2-  S97  1  0.62500000  0.37500000  0.62500000  1.0
  S2-  S98  1  0.62500000  0.87500000  0.12500000  1.0
  S2-  S99  1  0.00000000  0.50000000  0.75000000  1.0
  S2-  S100  1  0.00000000  0.50000000  0.25000000  1.0
  S2-  S101  1  0.50000000  0.00000000  0.75000000  1.0
  S2-  S102  1  0.50000000  0.50000000  0.75000000  1.0
  S2-  S103  1  0.50000000  0.50000000  0.25000000  1.0
  Cl-  Cl104  1  0.62768466  0.37136091  0.12510872  1.0
  Cl-  Cl105  1  0.00060781  0.00230701  0.75549876  1.0
  Cl-  Cl106  1  0.00000000  0.00000000  0.25000000  1.0
  Cl-  Cl107  1  0.49717456  0.00529174  0.25082937  1.0
