# generated using pymatgen
data_Li13P2S11Cl
_symmetry_space_group_name_H-M   'P 1'
_cell_length_a   13.99067335
_cell_length_b   13.99067335
_cell_length_c   13.99067335
_cell_angle_alpha   60.00000000
_cell_angle_beta   60.00000000
_cell_angle_gamma   60.00000000
_symmetry_Int_Tables_number   1
_chemical_formula_structural   Li13P2S11Cl
_chemical_formula_sum   'Li52 P8 S44 Cl4'
_cell_volume   1936.42576714
_cell_formula_units_Z   4
loop_
 _symmetry_equiv_pos_site_id
 _symmetry_equiv_pos_as_xyz
  1  'x, y, z'
loop_
 _atom_type_symbol
 _atom_type_oxidation_number
  Li+  1.0
  P5+  5.0
  S2-  -2.0
  Cl-  -1.0
loop_
 _atom_site_type_symbol
 _atom_site_label
 _atom_site_symmetry_multiplicity
 _atom_site_fract_x
 _atom_site_fract_y
 _atom_site_fract_z
 _atom_site_occupancy
  Li+  Li0  1  0.11200000  0.61200000  0.32800000  1.0
  Li+  Li1  1  0.94800000  0.32800000  0.11200000  1.0
  Li+  Li2  1  0.94800000  0.82800000  0.61200000  1.0
  Li+  Li3  1  0.44800000  0.11200000  0.82800000  1.0
  Li+  Li4  1  0.94800000  0.11200000  0.82800000  1.0
  Li+  Li5  1  0.94800000  0.11200000  0.61200000  1.0
  Li+  Li6  1  0.11200000  0.94800000  0.11200000  1.0
  Li+  Li7  1  0.32800000  0.61200000  0.44800000  1.0
  Li+  Li8  1  0.82800000  0.11200000  0.44800000  1.0
  Li+  Li9  1  0.32800000  0.61200000  0.11200000  1.0
  Li+  Li10  1  0.82800000  0.11200000  0.11200000  1.0
  Li+  Li11  1  0.17255000  0.01105000  0.30535000  1.0
  Li+  Li12  1  0.17255000  0.51105000  0.30535000  1.0
  Li+  Li13  1  0.17255000  0.51105000  0.80535000  1.0
  Li+  Li14  1  0.67255000  0.01105000  0.30535000  1.0
  Li+  Li15  1  0.01105000  0.80535000  0.17255000  1.0
  Li+  Li16  1  0.51105000  0.80535000  0.17255000  1.0
  Li+  Li17  1  0.30535000  0.01105000  0.51105000  1.0
  Li+  Li18  1  0.30535000  0.51105000  0.01105000  1.0
  Li+  Li19  1  0.80535000  0.01105000  0.01105000  1.0
  Li+  Li20  1  0.80535000  0.51105000  0.01105000  1.0
  Li+  Li21  1  0.30535000  0.01105000  0.17255000  1.0
  Li+  Li22  1  0.30535000  0.01105000  0.67255000  1.0
  Li+  Li23  1  0.80535000  0.01105000  0.67255000  1.0
  Li+  Li24  1  0.80535000  0.51105000  0.67255000  1.0
  Li+  Li25  1  0.01105000  0.01105000  0.30535000  1.0
  Li+  Li26  1  0.01105000  0.51105000  0.30535000  1.0
  Li+  Li27  1  0.51105000  0.01105000  0.80535000  1.0
  Li+  Li28  1  0.51105000  0.51105000  0.80535000  1.0
  Li+  Li29  1  0.01105000  0.51105000  0.17255000  1.0
  Li+  Li30  1  0.51105000  0.01105000  0.67255000  1.0
  Li+  Li31  1  0.51105000  0.51105000  0.17255000  1.0
  Li+  Li32  1  0.51105000  0.51105000  0.67255000  1.0
  Li+  Li33  1  0.01105000  0.67255000  0.80535000  1.0
  Li+  Li34  1  0.51105000  0.17255000  0.30535000  1.0
  Li+  Li35  1  0.01105000  0.67255000  0.51105000  1.0
  Li+  Li36  1  0.51105000  0.17255000  0.51105000  1.0
  Li+  Li37  1  0.51105000  0.67255000  0.01105000  1.0
  Li+  Li38  1  0.17255000  0.01105000  0.01105000  1.0
  Li+  Li39  1  0.17255000  0.01105000  0.51105000  1.0
  Li+  Li40  1  0.67255000  0.01105000  0.01105000  1.0
  Li+  Li41  1  0.67255000  0.51105000  0.51105000  1.0
  Li+  Li42  1  0.01105000  0.30535000  0.01105000  1.0
  Li+  Li43  1  0.51105000  0.80535000  0.51105000  1.0
  Li+  Li44  1  0.30535000  0.17255000  0.01105000  1.0
  Li+  Li45  1  0.80535000  0.17255000  0.01105000  1.0
  Li+  Li46  1  0.80535000  0.17255000  0.51105000  1.0
  Li+  Li47  1  0.80535000  0.67255000  0.01105000  1.0
  Li+  Li48  1  0.80535000  0.67255000  0.51105000  1.0
  Li+  Li49  1  0.17255000  0.80535000  0.51105000  1.0
  Li+  Li50  1  0.67255000  0.30535000  0.01105000  1.0
  Li+  Li51  1  0.67255000  0.30535000  0.51105000  1.0
  P5+  P1  1  0.25000000  0.25000000  0.25000000  1.0
  P5+  P1  1  0.25000000  0.25000000  0.75000000  1.0
  P5+  P1  1  0.25000000  0.75000000  0.25000000  1.0
  P5+  P1  1  0.25000000  0.75000000  0.75000000  1.0
  P5+  P1  1  0.75000000  0.25000000  0.25000000  1.0
  P5+  P1  1  0.75000000  0.25000000  0.75000000  1.0
  P5+  P1  1  0.75000000  0.75000000  0.25000000  1.0
  P5+  P1  1  0.75000000  0.75000000  0.75000000  1.0
  S2-  S2  1  0.30960000  0.07120000  0.30960000  1.0
  S2-  S2  1  0.30960000  0.07120000  0.80960000  1.0
  S2-  S2  1  0.30960000  0.57120000  0.30960000  1.0
  S2-  S2  1  0.30960000  0.57120000  0.80960000  1.0
  S2-  S2  1  0.80960000  0.07120000  0.30960000  1.0
  S2-  S2  1  0.80960000  0.07120000  0.80960000  1.0
  S2-  S2  1  0.80960000  0.57120000  0.30960000  1.0
  S2-  S2  1  0.80960000  0.57120000  0.80960000  1.0
  S2-  S2  1  0.30960000  0.30960000  0.30960000  1.0
  S2-  S2  1  0.30960000  0.30960000  0.80960000  1.0
  S2-  S2  1  0.30960000  0.80960000  0.30960000  1.0
  S2-  S2  1  0.30960000  0.80960000  0.80960000  1.0
  S2-  S2  1  0.80960000  0.30960000  0.30960000  1.0
  S2-  S2  1  0.80960000  0.30960000  0.80960000  1.0
  S2-  S2  1  0.80960000  0.80960000  0.30960000  1.0
  S2-  S2  1  0.80960000  0.80960000  0.80960000  1.0
  S2-  S2  1  0.30960000  0.30960000  0.07120000  1.0
  S2-  S2  1  0.30960000  0.30960000  0.57120000  1.0
  S2-  S2  1  0.30960000  0.80960000  0.07120000  1.0
  S2-  S2  1  0.30960000  0.80960000  0.57120000  1.0
  S2-  S2  1  0.80960000  0.30960000  0.07120000  1.0
  S2-  S2  1  0.80960000  0.30960000  0.57120000  1.0
  S2-  S2  1  0.80960000  0.80960000  0.07120000  1.0
  S2-  S2  1  0.80960000  0.80960000  0.57120000  1.0
  S2-  S2  1  0.07120000  0.30960000  0.30960000  1.0
  S2-  S2  1  0.07120000  0.30960000  0.80960000  1.0
  S2-  S2  1  0.07120000  0.80960000  0.30960000  1.0
  S2-  S2  1  0.07120000  0.80960000  0.80960000  1.0
  S2-  S2  1  0.57120000  0.30960000  0.30960000  1.0
  S2-  S2  1  0.57120000  0.30960000  0.80960000  1.0
  S2-  S2  1  0.57120000  0.80960000  0.30960000  1.0
  S2-  S2  1  0.57120000  0.80960000  0.80960000  1.0
  S2-  S92  1  0.12500000  0.12500000  0.12500000  1.0
  S2-  S93  1  0.12500000  0.12500000  0.62500000  1.0
  S2-  S94  1  0.12500000  0.62500000  0.12500000  1.0
  S2-  S95  1  0.12500000  0.62500000  0.62500000  1.0
  S2-  S96  1  0.62500000  0.12500000  0.12500000  1.0
  S2-  S97  1  0.62500000  0.12500000  0.62500000  1.0
  S2-  S98  1  0.62500000  0.62500000  0.12500000  1.0
  S2-  S99  1  0.00000000  0.00000000  0.50000000  1.0
  S2-  S100  1  0.00000000  0.50000000  0.50000000  1.0
  S2-  S101  1  0.50000000  0.00000000  0.00000000  1.0
  S2-  S102  1  0.50000000  0.00000000  0.50000000  1.0
  S2-  S103  1  0.50000000  0.50000000  0.50000000  1.0
  Cl-  Cl104  1  0.62500000  0.62500000  0.62500000  1.0
  Cl-  Cl105  1  0.00000000  0.00000000  0.00000000  1.0
  Cl-  Cl106  1  0.00000000  0.50000000  0.00000000  1.0
  Cl-  Cl107  1  0.50000000  0.50000000  0.00000000  1.0
