# generated using pymatgen
data_Li24P4S20Br3Cl
_symmetry_space_group_name_H-M   'P 1'
_cell_length_a   14.07566759
_cell_length_b   14.07566759
_cell_length_c   14.07566759
_cell_angle_alpha   60.00000000
_cell_angle_beta   120.00000000
_cell_angle_gamma   120.00000000
_symmetry_Int_Tables_number   1
_chemical_formula_structural   Li24P4S20Br3Cl
_chemical_formula_sum   'Li48 P8 S40 Br6 Cl2'
_cell_volume   1971.93233391
_cell_formula_units_Z   2
loop_
 _symmetry_equiv_pos_site_id
 _symmetry_equiv_pos_as_xyz
  1  'x, y, z'
loop_
 _atom_type_symbol
 _atom_type_oxidation_number
  Li+  1.0
  P5+  5.0
  S2-  -2.0
  Br-  -1.0
  Cl-  -1.0
loop_
 _atom_site_type_symbol
 _atom_site_label
 _atom_site_symmetry_multiplicity
 _atom_site_fract_x
 _atom_site_fract_y
 _atom_site_fract_z
 _atom_site_occupancy
  Li+  Li0  1  0.99598525  0.24101499  0.76181848  1.0
  Li+  Li1  1  0.99475876  0.50950336  0.99200814  1.0
  Li+  Li2  1  0.49100000  0.74100000  0.49100000  1.0
  Li+  Li3  1  0.49100000  0.74100000  0.99100000  1.0
  Li+  Li4  1  0.82499013  0.51734893  0.26001607  1.0
  Li+  Li5  1  0.82869794  0.01034621  0.76312044  1.0
  Li+  Li6  1  0.19795000  0.51175000  0.26175000  1.0
  Li+  Li7  1  0.19795000  0.01175000  0.26175000  1.0
  Li+  Li8  1  0.19737354  0.51551046  0.75528858  1.0
  Li+  Li9  1  0.19699218  0.00795793  0.76528804  1.0
  Li+  Li10  1  0.69795000  0.51175000  0.26175000  1.0
  Li+  Li11  1  0.69795000  0.01175000  0.26175000  1.0
  Li+  Li12  1  0.69795000  0.01175000  0.76175000  1.0
  Li+  Li13  1  0.19689187  0.17266668  0.26181823  1.0
  Li+  Li14  1  0.19795000  0.67445000  0.76175000  1.0
  Li+  Li15  1  0.69795000  0.67445000  0.76175000  1.0
  Li+  Li16  1  0.69624115  0.17447125  0.76254170  1.0
  Li+  Li17  1  0.48825000  0.17445000  0.05205000  1.0
  Li+  Li18  1  0.98882315  0.17281223  0.55375155  1.0
  Li+  Li19  1  0.48825000  0.01175000  0.55205000  1.0
  Li+  Li20  1  0.48825000  0.01175000  0.05205000  1.0
  Li+  Li21  1  0.98825000  0.01175000  0.55205000  1.0
  Li+  Li22  1  0.69795000  0.51175000  0.92445000  1.0
  Li+  Li23  1  0.69795000  0.01175000  0.92445000  1.0
  Li+  Li24  1  0.32555000  0.51175000  0.05205000  1.0
  Li+  Li25  1  0.48825000  0.30205000  0.42445000  1.0
  Li+  Li26  1  0.48825000  0.30205000  0.92445000  1.0
  Li+  Li27  1  0.98825000  0.30205000  0.42445000  1.0
  Li+  Li28  1  0.98825000  0.80205000  0.92445000  1.0
  Li+  Li29  1  0.98825000  0.30205000  0.92445000  1.0
  Li+  Li30  1  0.32758025  0.80315431  0.26154510  1.0
  Li+  Li31  1  0.32555000  0.80205000  0.76175000  1.0
  Li+  Li32  1  0.32555000  0.30205000  0.76175000  1.0
  Li+  Li33  1  0.82555000  0.80205000  0.26175000  1.0
  Li+  Li34  1  0.48825000  0.51175000  0.42445000  1.0
  Li+  Li35  1  0.48825000  0.01175000  0.42445000  1.0
  Li+  Li36  1  0.98825000  0.51175000  0.42445000  1.0
  Li+  Li37  1  0.98825000  0.01175000  0.42445000  1.0
  Li+  Li38  1  0.98825000  0.51175000  0.92445000  1.0
  Li+  Li39  1  0.98850585  0.01113497  0.92379270  1.0
  Li+  Li40  1  0.48825000  0.30205000  0.26175000  1.0
  Li+  Li41  1  0.48825000  0.30205000  0.76175000  1.0
  Li+  Li42  1  0.99054420  0.30219767  0.25866659  1.0
  Li+  Li43  1  0.49120245  0.67725333  0.26478671  1.0
  Li+  Li44  1  0.48825000  0.67445000  0.76175000  1.0
  Li+  Li45  1  0.98825000  0.67445000  0.26175000  1.0
  Li+  Li46  1  0.98825000  0.67445000  0.76175000  1.0
  Li+  Li47  1  0.98825000  0.17445000  0.76175000  1.0
  P5+  P48  1  0.25000000  0.75000000  0.50000000  1.0
  P5+  P49  1  0.25000000  0.25000000  0.50000000  1.0
  P5+  P50  1  0.25465812  0.74955948  0.00003517  1.0
  P5+  P51  1  0.25273993  0.24910691  0.99854731  1.0
  P5+  P52  1  0.75000000  0.75000000  0.50000000  1.0
  P5+  P53  1  0.75000000  0.25000000  0.50000000  1.0
  P5+  P54  1  0.75000000  0.75000000  0.00000000  1.0
  P5+  P55  1  0.75000000  0.25000000  0.00000000  1.0
  S2-  S56  1  0.19085000  0.80915000  0.55915000  1.0
  S2-  S57  1  0.19085000  0.30915000  0.55915000  1.0
  S2-  S58  1  0.19085000  0.80915000  0.05915000  1.0
  S2-  S59  1  0.19085000  0.30915000  0.05915000  1.0
  S2-  S60  1  0.69085000  0.80915000  0.55915000  1.0
  S2-  S61  1  0.69085000  0.30915000  0.55915000  1.0
  S2-  S62  1  0.69085000  0.80915000  0.05915000  1.0
  S2-  S63  1  0.69085000  0.30915000  0.05915000  1.0
  S2-  S64  1  0.42745000  0.80915000  0.55915000  1.0
  S2-  S65  1  0.42745000  0.30915000  0.55915000  1.0
  S2-  S66  1  0.43109878  0.80879781  0.05769420  1.0
  S2-  S67  1  0.42745000  0.30915000  0.05915000  1.0
  S2-  S68  1  0.92745000  0.80915000  0.55915000  1.0
  S2-  S69  1  0.92450250  0.30339928  0.55918136  1.0
  S2-  S70  1  0.92745000  0.80915000  0.05915000  1.0
  S2-  S71  1  0.92745000  0.30915000  0.05915000  1.0
  S2-  S72  1  0.19085000  0.80915000  0.32255000  1.0
  S2-  S73  1  0.19060207  0.30577563  0.32218678  1.0
  S2-  S74  1  0.19039502  0.80663384  0.82657183  1.0
  S2-  S75  1  0.19085000  0.30915000  0.82255000  1.0
  S2-  S76  1  0.69085000  0.80915000  0.32255000  1.0
  S2-  S77  1  0.69024799  0.30453585  0.32810370  1.0
  S2-  S78  1  0.68902665  0.80995377  0.82233184  1.0
  S2-  S79  1  0.69085000  0.30915000  0.82255000  1.0
  S2-  S80  1  0.19054265  0.57047612  0.55954020  1.0
  S2-  S81  1  0.19085000  0.07255000  0.55915000  1.0
  S2-  S82  1  0.19085000  0.57255000  0.05915000  1.0
  S2-  S83  1  0.19085000  0.07255000  0.05915000  1.0
  S2-  S84  1  0.69085000  0.57255000  0.55915000  1.0
  S2-  S85  1  0.69085000  0.07255000  0.55915000  1.0
  S2-  S86  1  0.68493825  0.57095303  0.05737101  1.0
  S2-  S87  1  0.69085000  0.07255000  0.05915000  1.0
  S2-  S88  1  0.00000000  0.00000000  0.75000000  1.0
  S2-  S89  1  0.50000000  0.00000000  0.25000000  1.0
  S2-  S90  1  0.37364093  0.62350516  0.37128744  1.0
  S2-  S91  1  0.37500000  0.12500000  0.37500000  1.0
  S2-  S92  1  0.37500000  0.62500000  0.87500000  1.0
  S2-  S93  1  0.37500000  0.12500000  0.87500000  1.0
  S2-  S94  1  0.87500000  0.12500000  0.37500000  1.0
  S2-  S95  1  0.87500000  0.62500000  0.87500000  1.0
  Br-  Br96  1  0.00000000  0.00000000  0.25000000  1.0
  Br-  Br97  1  0.00000000  0.50000000  0.25000000  1.0
  Br-  Br98  1  0.50000000  0.00000000  0.75000000  1.0
  Br-  Br99  1  0.50000000  0.50000000  0.75000000  1.0
  Br-  Br100  1  0.50000000  0.50000000  0.25000000  1.0
  Br-  Br101  1  0.87149167  0.12288751  0.87902081  1.0
  Cl-  Cl102  1  0.00057386  0.49838778  0.74811303  1.0
  Cl-  Cl103  1  0.87500000  0.62500000  0.37500000  1.0
