# generated using pymatgen
data_Li2BrO
_symmetry_space_group_name_H-M   'P 1'
_cell_length_a   12.16800000
_cell_length_b   16.22400000
_cell_length_c   12.16800000
_cell_angle_alpha   90.00000000
_cell_angle_beta   90.00000000
_cell_angle_gamma   90.00000000
_symmetry_Int_Tables_number   1
_chemical_formula_structural   Li2BrO
_chemical_formula_sum   'Li72 Br36 O36'
_cell_volume   2402.12907418
_cell_formula_units_Z   36
loop_
 _symmetry_equiv_pos_site_id
 _symmetry_equiv_pos_as_xyz
  1  'x, y, z'
loop_
 _atom_type_symbol
 _atom_type_oxidation_number
  Li+  1.0
  Br-  -1.0
  O2-  -2.0
loop_
 _atom_site_type_symbol
 _atom_site_label
 _atom_site_symmetry_multiplicity
 _atom_site_fract_x
 _atom_site_fract_y
 _atom_site_fract_z
 _atom_site_occupancy
  Li+  Li0  1  0.00000000  0.12500000  0.50000000  1.0
  Li+  Li0  1  0.00000000  0.62500000  0.50000000  1.0
  Li+  Li1  1  0.00000000  0.12500000  0.83333333  1.0
  Li+  Li1  1  0.00000000  0.62500000  0.83333333  1.0
  Li+  Li2  1  0.00000000  0.37500000  0.16666667  1.0
  Li+  Li2  1  0.00000000  0.87500000  0.16666667  1.0
  Li+  Li3  1  0.00000000  0.37500000  0.50000000  1.0
  Li+  Li3  1  0.00000000  0.87500000  0.50000000  1.0
  Li+  Li4  1  0.33333333  0.12500000  0.16666667  1.0
  Li+  Li4  1  0.33333333  0.62500000  0.16666667  1.0
  Li+  Li5  1  0.33333333  0.12500000  0.50000000  1.0
  Li+  Li5  1  0.33333333  0.62500000  0.50000000  1.0
  Li+  Li6  1  0.33333333  0.12500000  0.83333333  1.0
  Li+  Li6  1  0.33333333  0.62500000  0.83333333  1.0
  Li+  Li7  1  0.33333333  0.37500000  0.16666667  1.0
  Li+  Li7  1  0.33333333  0.87500000  0.16666667  1.0
  Li+  Li8  1  0.33333333  0.37500000  0.50000000  1.0
  Li+  Li8  1  0.33333333  0.87500000  0.50000000  1.0
  Li+  Li9  1  0.33333333  0.37500000  0.83333333  1.0
  Li+  Li9  1  0.33333333  0.87500000  0.83333333  1.0
  Li+  Li10  1  0.66666667  0.12500000  0.16666667  1.0
  Li+  Li10  1  0.66666667  0.62500000  0.16666667  1.0
  Li+  Li11  1  0.66666667  0.12500000  0.50000000  1.0
  Li+  Li11  1  0.66666667  0.62500000  0.50000000  1.0
  Li+  Li12  1  0.66666667  0.12500000  0.83333333  1.0
  Li+  Li12  1  0.66666667  0.62500000  0.83333333  1.0
  Li+  Li13  1  0.66666667  0.37500000  0.16666667  1.0
  Li+  Li13  1  0.66666667  0.87500000  0.16666667  1.0
  Li+  Li14  1  0.66666667  0.37500000  0.50000000  1.0
  Li+  Li14  1  0.66666667  0.87500000  0.50000000  1.0
  Li+  Li15  1  0.16666667  0.12500000  0.00000000  1.0
  Li+  Li15  1  0.16666667  0.62500000  0.00000000  1.0
  Li+  Li16  1  0.16666667  0.12500000  0.33333333  1.0
  Li+  Li16  1  0.16666667  0.62500000  0.33333333  1.0
  Li+  Li17  1  0.16666667  0.12500000  0.66666667  1.0
  Li+  Li17  1  0.16666667  0.62500000  0.66666667  1.0
  Li+  Li18  1  0.16666667  0.37500000  0.00000000  1.0
  Li+  Li18  1  0.16666667  0.87500000  0.00000000  1.0
  Li+  Li19  1  0.16666667  0.37500000  0.33333333  1.0
  Li+  Li19  1  0.16666667  0.87500000  0.33333333  1.0
  Li+  Li20  1  0.16666667  0.37500000  0.66666667  1.0
  Li+  Li20  1  0.16666667  0.87500000  0.66666667  1.0
  Li+  Li21  1  0.50000000  0.12500000  0.33333333  1.0
  Li+  Li21  1  0.50000000  0.62500000  0.33333333  1.0
  Li+  Li22  1  0.50000000  0.12500000  0.66666667  1.0
  Li+  Li22  1  0.50000000  0.62500000  0.66666667  1.0
  Li+  Li23  1  0.50000000  0.37500000  0.00000000  1.0
  Li+  Li23  1  0.50000000  0.87500000  0.00000000  1.0
  Li+  Li24  1  0.50000000  0.37500000  0.66666667  1.0
  Li+  Li24  1  0.50000000  0.87500000  0.66666667  1.0
  Li+  Li25  1  0.83333333  0.12500000  0.00000000  1.0
  Li+  Li25  1  0.83333333  0.62500000  0.00000000  1.0
  Li+  Li26  1  0.83333333  0.12500000  0.33333333  1.0
  Li+  Li26  1  0.83333333  0.62500000  0.33333333  1.0
  Li+  Li27  1  0.83333333  0.12500000  0.66666667  1.0
  Li+  Li27  1  0.83333333  0.62500000  0.66666667  1.0
  Li+  Li28  1  0.83333333  0.37500000  0.00000000  1.0
  Li+  Li28  1  0.83333333  0.87500000  0.00000000  1.0
  Li+  Li29  1  0.83333333  0.37500000  0.33333333  1.0
  Li+  Li29  1  0.83333333  0.87500000  0.33333333  1.0
  Li+  Li30  1  0.83333333  0.37500000  0.66666667  1.0
  Li+  Li30  1  0.83333333  0.87500000  0.66666667  1.0
  Li+  Li31  1  0.50000000  0.00000000  0.16666667  1.0
  Li+  Li31  1  0.50000000  0.50000000  0.16666667  1.0
  Li+  Li32  1  0.50000000  0.00000000  0.83333333  1.0
  Li+  Li32  1  0.50000000  0.50000000  0.83333333  1.0
  Li+  Li33  1  0.50000000  0.25000000  0.16666667  1.0
  Li+  Li33  1  0.50000000  0.75000000  0.16666667  1.0
  Li+  Li34  1  0.83333333  0.00000000  0.83333333  1.0
  Li+  Li34  1  0.83333333  0.50000000  0.83333333  1.0
  Li+  Li35  1  0.83333333  0.25000000  0.50000000  1.0
  Li+  Li35  1  0.83333333  0.75000000  0.50000000  1.0
  Br-  Br1  1  0.00000000  0.00000000  0.00000000  1.0
  Br-  Br1  1  0.00000000  0.50000000  0.00000000  1.0
  Br-  Br1  1  0.00000000  0.00000000  0.33333333  1.0
  Br-  Br1  1  0.00000000  0.50000000  0.33333333  1.0
  Br-  Br1  1  0.00000000  0.00000000  0.66666667  1.0
  Br-  Br1  1  0.00000000  0.50000000  0.66666667  1.0
  Br-  Br1  1  0.00000000  0.25000000  0.00000000  1.0
  Br-  Br1  1  0.00000000  0.75000000  0.00000000  1.0
  Br-  Br1  1  0.00000000  0.25000000  0.33333333  1.0
  Br-  Br1  1  0.00000000  0.75000000  0.33333333  1.0
  Br-  Br1  1  0.00000000  0.25000000  0.66666667  1.0
  Br-  Br1  1  0.00000000  0.75000000  0.66666667  1.0
  Br-  Br1  1  0.33333333  0.00000000  0.00000000  1.0
  Br-  Br1  1  0.33333333  0.50000000  0.00000000  1.0
  Br-  Br1  1  0.33333333  0.00000000  0.33333333  1.0
  Br-  Br1  1  0.33333333  0.50000000  0.33333333  1.0
  Br-  Br1  1  0.33333333  0.00000000  0.66666667  1.0
  Br-  Br1  1  0.33333333  0.50000000  0.66666667  1.0
  Br-  Br1  1  0.33333333  0.25000000  0.00000000  1.0
  Br-  Br1  1  0.33333333  0.75000000  0.00000000  1.0
  Br-  Br1  1  0.33333333  0.25000000  0.33333333  1.0
  Br-  Br1  1  0.33333333  0.75000000  0.33333333  1.0
  Br-  Br1  1  0.33333333  0.25000000  0.66666667  1.0
  Br-  Br1  1  0.33333333  0.75000000  0.66666667  1.0
  Br-  Br1  1  0.66666667  0.00000000  0.00000000  1.0
  Br-  Br1  1  0.66666667  0.50000000  0.00000000  1.0
  Br-  Br1  1  0.66666667  0.00000000  0.33333333  1.0
  Br-  Br1  1  0.66666667  0.50000000  0.33333333  1.0
  Br-  Br1  1  0.66666667  0.00000000  0.66666667  1.0
  Br-  Br1  1  0.66666667  0.50000000  0.66666667  1.0
  Br-  Br1  1  0.66666667  0.25000000  0.00000000  1.0
  Br-  Br1  1  0.66666667  0.75000000  0.00000000  1.0
  Br-  Br1  1  0.66666667  0.25000000  0.33333333  1.0
  Br-  Br1  1  0.66666667  0.75000000  0.33333333  1.0
  Br-  Br1  1  0.66666667  0.25000000  0.66666667  1.0
  Br-  Br1  1  0.66666667  0.75000000  0.66666667  1.0
  O2-  O1  1  0.16666667  0.12500000  0.16666667  1.0
  O2-  O1  1  0.16666667  0.62500000  0.16666667  1.0
  O2-  O1  1  0.16666667  0.12500000  0.50000000  1.0
  O2-  O1  1  0.16666667  0.62500000  0.50000000  1.0
  O2-  O1  1  0.16666667  0.12500000  0.83333333  1.0
  O2-  O1  1  0.16666667  0.62500000  0.83333333  1.0
  O2-  O1  1  0.16666667  0.37500000  0.16666667  1.0
  O2-  O1  1  0.16666667  0.87500000  0.16666667  1.0
  O2-  O1  1  0.16666667  0.37500000  0.50000000  1.0
  O2-  O1  1  0.16666667  0.87500000  0.50000000  1.0
  O2-  O1  1  0.16666667  0.37500000  0.83333333  1.0
  O2-  O1  1  0.16666667  0.87500000  0.83333333  1.0
  O2-  O1  1  0.50000000  0.12500000  0.16666667  1.0
  O2-  O1  1  0.50000000  0.62500000  0.16666667  1.0
  O2-  O1  1  0.50000000  0.12500000  0.50000000  1.0
  O2-  O1  1  0.50000000  0.62500000  0.50000000  1.0
  O2-  O1  1  0.50000000  0.12500000  0.83333333  1.0
  O2-  O1  1  0.50000000  0.62500000  0.83333333  1.0
  O2-  O1  1  0.50000000  0.37500000  0.16666667  1.0
  O2-  O1  1  0.50000000  0.87500000  0.16666667  1.0
  O2-  O1  1  0.50000000  0.37500000  0.50000000  1.0
  O2-  O1  1  0.50000000  0.87500000  0.50000000  1.0
  O2-  O1  1  0.50000000  0.37500000  0.83333333  1.0
  O2-  O1  1  0.50000000  0.87500000  0.83333333  1.0
  O2-  O1  1  0.83333333  0.12500000  0.16666667  1.0
  O2-  O1  1  0.83333333  0.62500000  0.16666667  1.0
  O2-  O1  1  0.83333333  0.12500000  0.50000000  1.0
  O2-  O1  1  0.83333333  0.62500000  0.50000000  1.0
  O2-  O1  1  0.83333333  0.12500000  0.83333333  1.0
  O2-  O1  1  0.83333333  0.62500000  0.83333333  1.0
  O2-  O1  1  0.83333333  0.37500000  0.16666667  1.0
  O2-  O1  1  0.83333333  0.87500000  0.16666667  1.0
  O2-  O1  1  0.83333333  0.37500000  0.50000000  1.0
  O2-  O1  1  0.83333333  0.87500000  0.50000000  1.0
  O2-  O1  1  0.83333333  0.37500000  0.83333333  1.0
  O2-  O1  1  0.83333333  0.87500000  0.83333333  1.0
