# generated using pymatgen
data_LiH2ClO
_symmetry_space_group_name_H-M   'P 1'
_cell_length_a   10.84477963
_cell_length_b   10.84477963
_cell_length_c   15.31840000
_cell_angle_alpha   90.00000000
_cell_angle_beta   90.00000000
_cell_angle_gamma   90.63359970
_symmetry_Int_Tables_number   1
_chemical_formula_structural   LiH2ClO
_chemical_formula_sum   'Li32 H64 Cl32 O32'
_cell_volume   1801.47530680
_cell_formula_units_Z   32
loop_
 _symmetry_equiv_pos_site_id
 _symmetry_equiv_pos_as_xyz
  1  'x, y, z'
loop_
 _atom_type_symbol
 _atom_type_oxidation_number
  Li+  1.0
  H+  1.0
  Cl-  -1.0
  O2-  -2.0
loop_
 _atom_site_type_symbol
 _atom_site_label
 _atom_site_symmetry_multiplicity
 _atom_site_fract_x
 _atom_site_fract_y
 _atom_site_fract_z
 _atom_site_occupancy
  Li+  Li1  1  0.25000000  0.25000000  0.25000000  1.0
  Li+  Li1  1  0.25000000  0.25000000  0.75000000  1.0
  Li+  Li1  1  0.25000000  0.75000000  0.25000000  1.0
  Li+  Li1  1  0.25000000  0.75000000  0.75000000  1.0
  Li+  Li1  1  0.75000000  0.25000000  0.25000000  1.0
  Li+  Li1  1  0.75000000  0.25000000  0.75000000  1.0
  Li+  Li1  1  0.75000000  0.75000000  0.25000000  1.0
  Li+  Li1  1  0.75000000  0.75000000  0.75000000  1.0
  Li+  Li1  1  0.25000000  0.25000000  0.00000000  1.0
  Li+  Li1  1  0.25000000  0.25000000  0.50000000  1.0
  Li+  Li1  1  0.25000000  0.75000000  0.00000000  1.0
  Li+  Li1  1  0.25000000  0.75000000  0.50000000  1.0
  Li+  Li1  1  0.75000000  0.25000000  0.00000000  1.0
  Li+  Li1  1  0.75000000  0.25000000  0.50000000  1.0
  Li+  Li1  1  0.75000000  0.75000000  0.00000000  1.0
  Li+  Li1  1  0.75000000  0.75000000  0.50000000  1.0
  Li+  Li2  1  0.09310000  0.40690000  0.37500000  1.0
  Li+  Li2  1  0.09310000  0.40690000  0.87500000  1.0
  Li+  Li2  1  0.09310000  0.90690000  0.37500000  1.0
  Li+  Li2  1  0.09310000  0.90690000  0.87500000  1.0
  Li+  Li2  1  0.59310000  0.40690000  0.37500000  1.0
  Li+  Li2  1  0.59310000  0.40690000  0.87500000  1.0
  Li+  Li2  1  0.59310000  0.90690000  0.37500000  1.0
  Li+  Li2  1  0.59310000  0.90690000  0.87500000  1.0
  Li+  Li2  1  0.40690000  0.09310000  0.12500000  1.0
  Li+  Li2  1  0.40690000  0.09310000  0.62500000  1.0
  Li+  Li2  1  0.40690000  0.59310000  0.12500000  1.0
  Li+  Li2  1  0.40690000  0.59310000  0.62500000  1.0
  Li+  Li2  1  0.90690000  0.09310000  0.12500000  1.0
  Li+  Li2  1  0.90690000  0.09310000  0.62500000  1.0
  Li+  Li2  1  0.90690000  0.59310000  0.12500000  1.0
  Li+  Li2  1  0.90690000  0.59310000  0.62500000  1.0
  H+  H1  1  0.44370000  0.14310000  0.27990000  1.0
  H+  H1  1  0.44370000  0.14310000  0.77990000  1.0
  H+  H1  1  0.44370000  0.64310000  0.27990000  1.0
  H+  H1  1  0.44370000  0.64310000  0.77990000  1.0
  H+  H1  1  0.94370000  0.14310000  0.27990000  1.0
  H+  H1  1  0.94370000  0.14310000  0.77990000  1.0
  H+  H1  1  0.94370000  0.64310000  0.27990000  1.0
  H+  H1  1  0.94370000  0.64310000  0.77990000  1.0
  H+  H1  1  0.14310000  0.44370000  0.22010000  1.0
  H+  H1  1  0.14310000  0.44370000  0.72010000  1.0
  H+  H1  1  0.14310000  0.94370000  0.22010000  1.0
  H+  H1  1  0.14310000  0.94370000  0.72010000  1.0
  H+  H1  1  0.64310000  0.44370000  0.22010000  1.0
  H+  H1  1  0.64310000  0.44370000  0.72010000  1.0
  H+  H1  1  0.64310000  0.94370000  0.22010000  1.0
  H+  H1  1  0.64310000  0.94370000  0.72010000  1.0
  H+  H1  1  0.44370000  0.14310000  0.47010000  1.0
  H+  H1  1  0.44370000  0.14310000  0.97010000  1.0
  H+  H1  1  0.44370000  0.64310000  0.47010000  1.0
  H+  H1  1  0.44370000  0.64310000  0.97010000  1.0
  H+  H1  1  0.94370000  0.14310000  0.47010000  1.0
  H+  H1  1  0.94370000  0.14310000  0.97010000  1.0
  H+  H1  1  0.94370000  0.64310000  0.47010000  1.0
  H+  H1  1  0.94370000  0.64310000  0.97010000  1.0
  H+  H1  1  0.14310000  0.44370000  0.02990000  1.0
  H+  H1  1  0.14310000  0.44370000  0.52990000  1.0
  H+  H1  1  0.14310000  0.94370000  0.02990000  1.0
  H+  H1  1  0.14310000  0.94370000  0.52990000  1.0
  H+  H1  1  0.64310000  0.44370000  0.02990000  1.0
  H+  H1  1  0.64310000  0.44370000  0.52990000  1.0
  H+  H1  1  0.64310000  0.94370000  0.02990000  1.0
  H+  H1  1  0.64310000  0.94370000  0.52990000  1.0
  H+  H1  1  0.05630000  0.35690000  0.22010000  1.0
  H+  H1  1  0.05630000  0.35690000  0.72010000  1.0
  H+  H1  1  0.05630000  0.85690000  0.22010000  1.0
  H+  H1  1  0.05630000  0.85690000  0.72010000  1.0
  H+  H1  1  0.55630000  0.35690000  0.22010000  1.0
  H+  H1  1  0.55630000  0.35690000  0.72010000  1.0
  H+  H1  1  0.55630000  0.85690000  0.22010000  1.0
  H+  H1  1  0.55630000  0.85690000  0.72010000  1.0
  H+  H1  1  0.35690000  0.05630000  0.27990000  1.0
  H+  H1  1  0.35690000  0.05630000  0.77990000  1.0
  H+  H1  1  0.35690000  0.55630000  0.27990000  1.0
  H+  H1  1  0.35690000  0.55630000  0.77990000  1.0
  H+  H1  1  0.85690000  0.05630000  0.27990000  1.0
  H+  H1  1  0.85690000  0.05630000  0.77990000  1.0
  H+  H1  1  0.85690000  0.55630000  0.27990000  1.0
  H+  H1  1  0.85690000  0.55630000  0.77990000  1.0
  H+  H1  1  0.05630000  0.35690000  0.02990000  1.0
  H+  H1  1  0.05630000  0.35690000  0.52990000  1.0
  H+  H1  1  0.05630000  0.85690000  0.02990000  1.0
  H+  H1  1  0.05630000  0.85690000  0.52990000  1.0
  H+  H1  1  0.55630000  0.35690000  0.02990000  1.0
  H+  H1  1  0.55630000  0.35690000  0.52990000  1.0
  H+  H1  1  0.55630000  0.85690000  0.02990000  1.0
  H+  H1  1  0.55630000  0.85690000  0.52990000  1.0
  H+  H1  1  0.35690000  0.05630000  0.47010000  1.0
  H+  H1  1  0.35690000  0.05630000  0.97010000  1.0
  H+  H1  1  0.35690000  0.55630000  0.47010000  1.0
  H+  H1  1  0.35690000  0.55630000  0.97010000  1.0
  H+  H1  1  0.85690000  0.05630000  0.47010000  1.0
  H+  H1  1  0.85690000  0.05630000  0.97010000  1.0
  H+  H1  1  0.85690000  0.55630000  0.47010000  1.0
  H+  H1  1  0.85690000  0.55630000  0.97010000  1.0
  Cl-  Cl1  1  0.11912500  0.14292500  0.37500000  1.0
  Cl-  Cl1  1  0.11912500  0.14292500  0.87500000  1.0
  Cl-  Cl1  1  0.11912500  0.64292500  0.37500000  1.0
  Cl-  Cl1  1  0.11912500  0.64292500  0.87500000  1.0
  Cl-  Cl1  1  0.61912500  0.14292500  0.37500000  1.0
  Cl-  Cl1  1  0.61912500  0.14292500  0.87500000  1.0
  Cl-  Cl1  1  0.61912500  0.64292500  0.37500000  1.0
  Cl-  Cl1  1  0.61912500  0.64292500  0.87500000  1.0
  Cl-  Cl1  1  0.14292500  0.11912500  0.12500000  1.0
  Cl-  Cl1  1  0.14292500  0.11912500  0.62500000  1.0
  Cl-  Cl1  1  0.14292500  0.61912500  0.12500000  1.0
  Cl-  Cl1  1  0.14292500  0.61912500  0.62500000  1.0
  Cl-  Cl1  1  0.64292500  0.11912500  0.12500000  1.0
  Cl-  Cl1  1  0.64292500  0.11912500  0.62500000  1.0
  Cl-  Cl1  1  0.64292500  0.61912500  0.12500000  1.0
  Cl-  Cl1  1  0.64292500  0.61912500  0.62500000  1.0
  Cl-  Cl1  1  0.38087500  0.35707500  0.12500000  1.0
  Cl-  Cl1  1  0.38087500  0.35707500  0.62500000  1.0
  Cl-  Cl1  1  0.38087500  0.85707500  0.12500000  1.0
  Cl-  Cl1  1  0.38087500  0.85707500  0.62500000  1.0
  Cl-  Cl1  1  0.88087500  0.35707500  0.12500000  1.0
  Cl-  Cl1  1  0.88087500  0.35707500  0.62500000  1.0
  Cl-  Cl1  1  0.88087500  0.85707500  0.12500000  1.0
  Cl-  Cl1  1  0.88087500  0.85707500  0.62500000  1.0
  Cl-  Cl1  1  0.35707500  0.38087500  0.37500000  1.0
  Cl-  Cl1  1  0.35707500  0.38087500  0.87500000  1.0
  Cl-  Cl1  1  0.35707500  0.88087500  0.37500000  1.0
  Cl-  Cl1  1  0.35707500  0.88087500  0.87500000  1.0
  Cl-  Cl1  1  0.85707500  0.38087500  0.37500000  1.0
  Cl-  Cl1  1  0.85707500  0.38087500  0.87500000  1.0
  Cl-  Cl1  1  0.85707500  0.88087500  0.37500000  1.0
  Cl-  Cl1  1  0.85707500  0.88087500  0.87500000  1.0
  O2-  O1  1  0.38228500  0.11771500  0.25280500  1.0
  O2-  O1  1  0.38228500  0.11771500  0.75280500  1.0
  O2-  O1  1  0.38228500  0.61771500  0.25280500  1.0
  O2-  O1  1  0.38228500  0.61771500  0.75280500  1.0
  O2-  O1  1  0.88228500  0.11771500  0.25280500  1.0
  O2-  O1  1  0.88228500  0.11771500  0.75280500  1.0
  O2-  O1  1  0.88228500  0.61771500  0.25280500  1.0
  O2-  O1  1  0.88228500  0.61771500  0.75280500  1.0
  O2-  O1  1  0.11771500  0.38228500  0.24719500  1.0
  O2-  O1  1  0.11771500  0.38228500  0.74719500  1.0
  O2-  O1  1  0.11771500  0.88228500  0.24719500  1.0
  O2-  O1  1  0.11771500  0.88228500  0.74719500  1.0
  O2-  O1  1  0.61771500  0.38228500  0.24719500  1.0
  O2-  O1  1  0.61771500  0.38228500  0.74719500  1.0
  O2-  O1  1  0.61771500  0.88228500  0.24719500  1.0
  O2-  O1  1  0.61771500  0.88228500  0.74719500  1.0
  O2-  O1  1  0.38228500  0.11771500  0.49719500  1.0
  O2-  O1  1  0.38228500  0.11771500  0.99719500  1.0
  O2-  O1  1  0.38228500  0.61771500  0.49719500  1.0
  O2-  O1  1  0.38228500  0.61771500  0.99719500  1.0
  O2-  O1  1  0.88228500  0.11771500  0.49719500  1.0
  O2-  O1  1  0.88228500  0.11771500  0.99719500  1.0
  O2-  O1  1  0.88228500  0.61771500  0.49719500  1.0
  O2-  O1  1  0.88228500  0.61771500  0.99719500  1.0
  O2-  O1  1  0.11771500  0.38228500  0.00280500  1.0
  O2-  O1  1  0.11771500  0.38228500  0.50280500  1.0
  O2-  O1  1  0.11771500  0.88228500  0.00280500  1.0
  O2-  O1  1  0.11771500  0.88228500  0.50280500  1.0
  O2-  O1  1  0.61771500  0.38228500  0.00280500  1.0
  O2-  O1  1  0.61771500  0.38228500  0.50280500  1.0
  O2-  O1  1  0.61771500  0.88228500  0.00280500  1.0
  O2-  O1  1  0.61771500  0.88228500  0.50280500  1.0
