# generated using pymatgen
data_Li9S3N
_symmetry_space_group_name_H-M   'P 1'
_cell_length_a   11.03020000
_cell_length_b   11.03020000
_cell_length_c   11.03020000
_cell_angle_alpha   90.00000000
_cell_angle_beta   90.00000000
_cell_angle_gamma   90.00000000
_symmetry_Int_Tables_number   1
_chemical_formula_structural   Li9S3N
_chemical_formula_sum   'Li72 S24 N8'
_cell_volume   1341.99272486
_cell_formula_units_Z   8
loop_
 _symmetry_equiv_pos_site_id
 _symmetry_equiv_pos_as_xyz
  1  'x, y, z'
loop_
 _atom_type_symbol
 _atom_type_oxidation_number
  Li+  1.0
  S2-  -2.0
  N3-  -3.0
loop_
 _atom_site_type_symbol
 _atom_site_label
 _atom_site_symmetry_multiplicity
 _atom_site_fract_x
 _atom_site_fract_y
 _atom_site_fract_z
 _atom_site_occupancy
  Li+  Li0  1  0.10955000  0.60955000  0.64045000  1.0
  Li+  Li1  1  0.10955000  0.10955000  0.64045000  1.0
  Li+  Li2  1  0.10955000  0.60955000  0.14045000  1.0
  Li+  Li3  1  0.10955000  0.10955000  0.14045000  1.0
  Li+  Li4  1  0.60955000  0.60955000  0.64045000  1.0
  Li+  Li5  1  0.60955000  0.10955000  0.64045000  1.0
  Li+  Li6  1  0.60907509  0.60929266  0.14622235  1.0
  Li+  Li7  1  0.60955000  0.10955000  0.14045000  1.0
  Li+  Li8  1  0.10955000  0.89045000  0.35955000  1.0
  Li+  Li9  1  0.11150591  0.39356654  0.35627184  1.0
  Li+  Li10  1  0.10955000  0.89045000  0.85955000  1.0
  Li+  Li11  1  0.10955000  0.39045000  0.85955000  1.0
  Li+  Li12  1  0.60955000  0.89045000  0.35955000  1.0
  Li+  Li13  1  0.61063390  0.39383424  0.35779329  1.0
  Li+  Li14  1  0.60955000  0.89045000  0.85955000  1.0
  Li+  Li15  1  0.60955000  0.39045000  0.85955000  1.0
  Li+  Li16  1  0.39045000  0.89045000  0.64045000  1.0
  Li+  Li17  1  0.39045000  0.39045000  0.64045000  1.0
  Li+  Li18  1  0.39045000  0.89045000  0.14045000  1.0
  Li+  Li19  1  0.39045000  0.39045000  0.14045000  1.0
  Li+  Li20  1  0.88992830  0.89415144  0.63983831  1.0
  Li+  Li21  1  0.89110229  0.38747124  0.64122736  1.0
  Li+  Li22  1  0.88982586  0.88780147  0.14270783  1.0
  Li+  Li23  1  0.89045000  0.39045000  0.14045000  1.0
  Li+  Li24  1  0.39045000  0.60955000  0.35955000  1.0
  Li+  Li25  1  0.38754797  0.10490750  0.36047824  1.0
  Li+  Li26  1  0.39045000  0.60955000  0.85955000  1.0
  Li+  Li27  1  0.39045000  0.10955000  0.85955000  1.0
  Li+  Li28  1  0.89045000  0.60955000  0.35955000  1.0
  Li+  Li29  1  0.89045000  0.10955000  0.35955000  1.0
  Li+  Li30  1  0.89045000  0.60955000  0.85955000  1.0
  Li+  Li31  1  0.89045000  0.10955000  0.85955000  1.0
  Li+  Li32  1  0.39045000  0.89045000  0.35955000  1.0
  Li+  Li33  1  0.39045000  0.39045000  0.35955000  1.0
  Li+  Li34  1  0.38831154  0.88970709  0.85933289  1.0
  Li+  Li35  1  0.39045000  0.39045000  0.85955000  1.0
  Li+  Li36  1  0.89045000  0.89045000  0.35955000  1.0
  Li+  Li37  1  0.89045000  0.39045000  0.35955000  1.0
  Li+  Li38  1  0.89045000  0.89045000  0.85955000  1.0
  Li+  Li39  1  0.89045000  0.39045000  0.85955000  1.0
  Li+  Li40  1  0.38798271  0.60899286  0.64007340  1.0
  Li+  Li41  1  0.39045000  0.10955000  0.64045000  1.0
  Li+  Li42  1  0.38840601  0.60480441  0.14165385  1.0
  Li+  Li43  1  0.39254599  0.10856975  0.14100877  1.0
  Li+  Li44  1  0.89336539  0.61452232  0.64267156  1.0
  Li+  Li45  1  0.89045000  0.10955000  0.64045000  1.0
  Li+  Li46  1  0.88914550  0.61214135  0.14619040  1.0
  Li+  Li47  1  0.89045000  0.10955000  0.14045000  1.0
  Li+  Li48  1  0.10955000  0.60955000  0.35955000  1.0
  Li+  Li49  1  0.10955000  0.10955000  0.35955000  1.0
  Li+  Li50  1  0.10955000  0.60955000  0.85955000  1.0
  Li+  Li51  1  0.10955000  0.10955000  0.85955000  1.0
  Li+  Li52  1  0.60955000  0.60955000  0.35955000  1.0
  Li+  Li53  1  0.60863499  0.10952121  0.36653315  1.0
  Li+  Li54  1  0.60955000  0.60955000  0.85955000  1.0
  Li+  Li55  1  0.60955000  0.10955000  0.85955000  1.0
  Li+  Li56  1  0.10955000  0.89045000  0.64045000  1.0
  Li+  Li57  1  0.10955000  0.39045000  0.64045000  1.0
  Li+  Li58  1  0.10890912  0.89278217  0.14199553  1.0
  Li+  Li59  1  0.11154821  0.38650245  0.14008175  1.0
  Li+  Li60  1  0.60955000  0.89045000  0.64045000  1.0
  Li+  Li61  1  0.60955000  0.39045000  0.64045000  1.0
  Li+  Li62  1  0.61015075  0.89096397  0.14108183  1.0
  Li+  Li63  1  0.60955000  0.39045000  0.14045000  1.0
  Li+  Li64  1  0.24768132  0.74984719  0.49781485  1.0
  Li+  Li65  1  0.25199423  0.25309818  0.49997562  1.0
  Li+  Li66  1  0.25000000  0.75000000  0.00000000  1.0
  Li+  Li67  1  0.25000000  0.25000000  0.00000000  1.0
  Li+  Li68  1  0.75000000  0.75000000  0.50000000  1.0
  Li+  Li69  1  0.75000000  0.25000000  0.50000000  1.0
  Li+  Li70  1  0.75000000  0.75000000  0.00000000  1.0
  Li+  Li71  1  0.75000000  0.25000000  0.00000000  1.0
  S2-  S72  1  0.25000000  0.00000000  0.50000000  1.0
  S2-  S73  1  0.25000000  0.50000000  0.50000000  1.0
  S2-  S74  1  0.25000000  0.00000000  0.00000000  1.0
  S2-  S75  1  0.25000000  0.50000000  0.00000000  1.0
  S2-  S76  1  0.75117378  0.99631959  0.49986588  1.0
  S2-  S77  1  0.75000000  0.50000000  0.50000000  1.0
  S2-  S78  1  0.75000000  0.00000000  0.00000000  1.0
  S2-  S79  1  0.75000000  0.50000000  0.00000000  1.0
  S2-  S80  1  0.25000000  0.75000000  0.75000000  1.0
  S2-  S81  1  0.25000000  0.25000000  0.75000000  1.0
  S2-  S82  1  0.25000000  0.75000000  0.25000000  1.0
  S2-  S83  1  0.25000000  0.25000000  0.25000000  1.0
  S2-  S84  1  0.75000000  0.75000000  0.75000000  1.0
  S2-  S85  1  0.75000000  0.25000000  0.75000000  1.0
  S2-  S86  1  0.75000000  0.75000000  0.25000000  1.0
  S2-  S87  1  0.75000000  0.25000000  0.25000000  1.0
  S2-  S88  1  0.00000000  0.75000000  0.50000000  1.0
  S2-  S89  1  0.00000000  0.25000000  0.50000000  1.0
  S2-  S90  1  0.00000000  0.75000000  0.00000000  1.0
  S2-  S91  1  0.99894213  0.24861601  0.99763522  1.0
  S2-  S92  1  0.50000000  0.75000000  0.50000000  1.0
  S2-  S93  1  0.50000000  0.25000000  0.50000000  1.0
  S2-  S94  1  0.50493833  0.74672842  0.99878662  1.0
  S2-  S95  1  0.50368781  0.24927164  0.00446325  1.0
  N3-  N96  1  0.00000000  0.00000000  0.75000000  1.0
  N3-  N97  1  0.00000000  0.50000000  0.75000000  1.0
  N3-  N98  1  0.00000000  0.00000000  0.25000000  1.0
  N3-  N99  1  0.00082548  0.50035558  0.24681243  1.0
  N3-  N100  1  0.50000000  0.00000000  0.75000000  1.0
  N3-  N101  1  0.49881776  0.50091741  0.75052421  1.0
  N3-  N102  1  0.50000000  0.00000000  0.25000000  1.0
  N3-  N103  1  0.50055600  0.50369231  0.25247794  1.0
