# generated using pymatgen
data_Li9S3N
_symmetry_space_group_name_H-M   'P 1'
_cell_length_a   11.13252484
_cell_length_b   11.13252484
_cell_length_c   11.13252484
_cell_angle_alpha   90.00000000
_cell_angle_beta   90.00000000
_cell_angle_gamma   90.00000000
_symmetry_Int_Tables_number   1
_chemical_formula_structural   Li9S3N
_chemical_formula_sum   'Li72 S24 N8'
_cell_volume   1379.68841793
_cell_formula_units_Z   8
loop_
 _symmetry_equiv_pos_site_id
 _symmetry_equiv_pos_as_xyz
  1  'x, y, z'
loop_
 _atom_type_symbol
 _atom_type_oxidation_number
  Li+  1.0
  S2-  -2.0
  N3-  -3.0
loop_
 _atom_site_type_symbol
 _atom_site_label
 _atom_site_symmetry_multiplicity
 _atom_site_fract_x
 _atom_site_fract_y
 _atom_site_fract_z
 _atom_site_occupancy
  Li+  Li0  1  0.89045000  0.55711667  0.39045000  1.0
  Li+  Li1  1  0.89045000  0.55711667  0.89045000  1.0
  Li+  Li2  1  0.39045000  0.55711667  0.39045000  1.0
  Li+  Li3  1  0.39045000  0.55711667  0.89045000  1.0
  Li+  Li4  1  0.89045000  0.05711667  0.39045000  1.0
  Li+  Li5  1  0.89045000  0.05711667  0.89045000  1.0
  Li+  Li6  1  0.39045000  0.05711667  0.39045000  1.0
  Li+  Li7  1  0.39045000  0.05711667  0.89045000  1.0
  Li+  Li8  1  0.60955000  0.55711667  0.10955000  1.0
  Li+  Li9  1  0.60955000  0.55711667  0.60955000  1.0
  Li+  Li10  1  0.10955000  0.55711667  0.10955000  1.0
  Li+  Li11  1  0.10955000  0.55711667  0.60955000  1.0
  Li+  Li12  1  0.60955000  0.05711667  0.10955000  1.0
  Li+  Li13  1  0.60955000  0.05711667  0.60955000  1.0
  Li+  Li14  1  0.10955000  0.05711667  0.10955000  1.0
  Li+  Li15  1  0.10955000  0.05711667  0.60955000  1.0
  Li+  Li16  1  0.89045000  0.27621667  0.10955000  1.0
  Li+  Li17  1  0.89045000  0.27621667  0.60955000  1.0
  Li+  Li18  1  0.39045000  0.27621667  0.10955000  1.0
  Li+  Li19  1  0.39045000  0.27621667  0.60955000  1.0
  Li+  Li20  1  0.89045000  0.77621667  0.10955000  1.0
  Li+  Li21  1  0.89045000  0.77621667  0.60955000  1.0
  Li+  Li22  1  0.39045000  0.77621667  0.10955000  1.0
  Li+  Li23  1  0.39045000  0.77621667  0.60955000  1.0
  Li+  Li24  1  0.60955000  0.27621667  0.39045000  1.0
  Li+  Li25  1  0.60955000  0.27621667  0.89045000  1.0
  Li+  Li26  1  0.10955000  0.27621667  0.39045000  1.0
  Li+  Li27  1  0.10955000  0.27621667  0.89045000  1.0
  Li+  Li28  1  0.60955000  0.77621667  0.39045000  1.0
  Li+  Li29  1  0.60955000  0.77621667  0.89045000  1.0
  Li+  Li30  1  0.10955000  0.77621667  0.39045000  1.0
  Li+  Li31  1  0.10955000  0.77621667  0.89045000  1.0
  Li+  Li32  1  0.60955000  0.27621667  0.10955000  1.0
  Li+  Li33  1  0.60955000  0.27621667  0.60955000  1.0
  Li+  Li34  1  0.10955000  0.27621667  0.10955000  1.0
  Li+  Li35  1  0.10955000  0.27621667  0.60955000  1.0
  Li+  Li36  1  0.60955000  0.77621667  0.10955000  1.0
  Li+  Li37  1  0.60955000  0.77621667  0.60955000  1.0
  Li+  Li38  1  0.10955000  0.77621667  0.10955000  1.0
  Li+  Li39  1  0.10955000  0.77621667  0.60955000  1.0
  Li+  Li40  1  0.89045000  0.27621667  0.39045000  1.0
  Li+  Li41  1  0.89045000  0.27621667  0.89045000  1.0
  Li+  Li42  1  0.39045000  0.27621667  0.39045000  1.0
  Li+  Li43  1  0.39045000  0.27621667  0.89045000  1.0
  Li+  Li44  1  0.89045000  0.77621667  0.39045000  1.0
  Li+  Li45  1  0.89045000  0.77621667  0.89045000  1.0
  Li+  Li46  1  0.39045000  0.77621667  0.39045000  1.0
  Li+  Li47  1  0.39045000  0.77621667  0.89045000  1.0
  Li+  Li48  1  0.60955000  0.55711667  0.39045000  1.0
  Li+  Li49  1  0.60955000  0.55711667  0.89045000  1.0
  Li+  Li50  1  0.10955000  0.55711667  0.39045000  1.0
  Li+  Li51  1  0.10955000  0.55711667  0.89045000  1.0
  Li+  Li52  1  0.60955000  0.05711667  0.39045000  1.0
  Li+  Li53  1  0.60955000  0.05711667  0.89045000  1.0
  Li+  Li54  1  0.10955000  0.05711667  0.39045000  1.0
  Li+  Li55  1  0.10955000  0.05711667  0.89045000  1.0
  Li+  Li56  1  0.89045000  0.55711667  0.10955000  1.0
  Li+  Li57  1  0.89045000  0.55711667  0.60955000  1.0
  Li+  Li58  1  0.39045000  0.55711667  0.10955000  1.0
  Li+  Li59  1  0.39045000  0.55711667  0.60955000  1.0
  Li+  Li60  1  0.89045000  0.05711667  0.10955000  1.0
  Li+  Li61  1  0.89045000  0.05711667  0.60955000  1.0
  Li+  Li62  1  0.39045000  0.05711667  0.10955000  1.0
  Li+  Li63  1  0.39045000  0.05711667  0.60955000  1.0
  Li+  Li64  1  0.75000000  0.41666667  0.25000000  1.0
  Li+  Li65  1  0.75000000  0.41666667  0.75000000  1.0
  Li+  Li66  1  0.25000000  0.41666667  0.25000000  1.0
  Li+  Li67  1  0.25000000  0.41666667  0.75000000  1.0
  Li+  Li68  1  0.75000000  0.91666667  0.25000000  1.0
  Li+  Li69  1  0.75000000  0.91666667  0.75000000  1.0
  Li+  Li70  1  0.25000000  0.91666667  0.25000000  1.0
  Li+  Li71  1  0.25000000  0.91666667  0.75000000  1.0
  S2-  S72  1  0.75000000  0.41666667  0.00000000  1.0
  S2-  S73  1  0.75000000  0.41666667  0.50000000  1.0
  S2-  S74  1  0.25000000  0.41666667  0.00000000  1.0
  S2-  S75  1  0.25000000  0.41666667  0.50000000  1.0
  S2-  S76  1  0.75000000  0.91666667  0.00000000  1.0
  S2-  S77  1  0.75000000  0.91666667  0.50000000  1.0
  S2-  S78  1  0.25000000  0.91666667  0.00000000  1.0
  S2-  S79  1  0.25000000  0.91666667  0.50000000  1.0
  S2-  S80  1  0.00000000  0.41666667  0.25000000  1.0
  S2-  S81  1  0.00000000  0.41666667  0.75000000  1.0
  S2-  S82  1  0.50000000  0.41666667  0.25000000  1.0
  S2-  S83  1  0.50000000  0.41666667  0.75000000  1.0
  S2-  S84  1  0.00000000  0.91666667  0.25000000  1.0
  S2-  S85  1  0.00000000  0.91666667  0.75000000  1.0
  S2-  S86  1  0.50000000  0.91666667  0.25000000  1.0
  S2-  S87  1  0.50000000  0.91666667  0.75000000  1.0
  S2-  S88  1  0.75000000  0.66666667  0.25000000  1.0
  S2-  S89  1  0.75000000  0.66666667  0.75000000  1.0
  S2-  S90  1  0.25000000  0.66666667  0.25000000  1.0
  S2-  S91  1  0.25000000  0.66666667  0.75000000  1.0
  S2-  S92  1  0.75000000  0.16666667  0.25000000  1.0
  S2-  S93  1  0.75000000  0.16666667  0.75000000  1.0
  S2-  S94  1  0.25000000  0.16666667  0.25000000  1.0
  S2-  S95  1  0.25000000  0.16666667  0.75000000  1.0
  N3-  N96  1  0.00000000  0.66666667  0.00000000  1.0
  N3-  N97  1  0.00000000  0.66666667  0.50000000  1.0
  N3-  N98  1  0.50000000  0.66666667  0.00000000  1.0
  N3-  N99  1  0.50000000  0.66666667  0.50000000  1.0
  N3-  N100  1  0.00000000  0.16666667  0.00000000  1.0
  N3-  N101  1  0.00000000  0.16666667  0.50000000  1.0
  N3-  N102  1  0.50000000  0.16666667  0.00000000  1.0
  N3-  N103  1  0.50000000  0.16666667  0.50000000  1.0
