# generated using pymatgen
data_Li9S3N
_symmetry_space_group_name_H-M   'P 1'
_cell_length_a   11.03020000
_cell_length_b   11.03020000
_cell_length_c   11.03020000
_cell_angle_alpha   90.00000000
_cell_angle_beta   90.00000000
_cell_angle_gamma   90.00000000
_symmetry_Int_Tables_number   1
_chemical_formula_structural   Li9S3N
_chemical_formula_sum   'Li72 S24 N8'
_cell_volume   1341.99272486
_cell_formula_units_Z   8
loop_
 _symmetry_equiv_pos_site_id
 _symmetry_equiv_pos_as_xyz
  1  'x, y, z'
loop_
 _atom_type_symbol
 _atom_type_oxidation_number
  Li+  1.0
  S2-  -2.0
  N3-  -3.0
loop_
 _atom_site_type_symbol
 _atom_site_label
 _atom_site_symmetry_multiplicity
 _atom_site_fract_x
 _atom_site_fract_y
 _atom_site_fract_z
 _atom_site_occupancy
  Li+  Li1  1  0.10955000  0.10955000  0.39045000  1.0
  Li+  Li1  1  0.10955000  0.10955000  0.89045000  1.0
  Li+  Li1  1  0.10955000  0.60955000  0.39045000  1.0
  Li+  Li1  1  0.10955000  0.60955000  0.89045000  1.0
  Li+  Li1  1  0.60955000  0.10955000  0.39045000  1.0
  Li+  Li1  1  0.60955000  0.10955000  0.89045000  1.0
  Li+  Li1  1  0.60955000  0.60955000  0.39045000  1.0
  Li+  Li1  1  0.60955000  0.60955000  0.89045000  1.0
  Li+  Li1  1  0.10955000  0.39045000  0.10955000  1.0
  Li+  Li1  1  0.10955000  0.39045000  0.60955000  1.0
  Li+  Li1  1  0.10955000  0.89045000  0.10955000  1.0
  Li+  Li1  1  0.10955000  0.89045000  0.60955000  1.0
  Li+  Li1  1  0.60955000  0.39045000  0.10955000  1.0
  Li+  Li1  1  0.60955000  0.39045000  0.60955000  1.0
  Li+  Li1  1  0.60955000  0.89045000  0.10955000  1.0
  Li+  Li1  1  0.60955000  0.89045000  0.60955000  1.0
  Li+  Li1  1  0.39045000  0.10955000  0.10955000  1.0
  Li+  Li1  1  0.39045000  0.10955000  0.60955000  1.0
  Li+  Li1  1  0.39045000  0.60955000  0.10955000  1.0
  Li+  Li1  1  0.39045000  0.60955000  0.60955000  1.0
  Li+  Li1  1  0.89045000  0.10955000  0.10955000  1.0
  Li+  Li1  1  0.89045000  0.10955000  0.60955000  1.0
  Li+  Li1  1  0.89045000  0.60955000  0.10955000  1.0
  Li+  Li1  1  0.89045000  0.60955000  0.60955000  1.0
  Li+  Li1  1  0.39045000  0.39045000  0.39045000  1.0
  Li+  Li1  1  0.39045000  0.39045000  0.89045000  1.0
  Li+  Li1  1  0.39045000  0.89045000  0.39045000  1.0
  Li+  Li1  1  0.39045000  0.89045000  0.89045000  1.0
  Li+  Li1  1  0.89045000  0.39045000  0.39045000  1.0
  Li+  Li1  1  0.89045000  0.39045000  0.89045000  1.0
  Li+  Li1  1  0.89045000  0.89045000  0.39045000  1.0
  Li+  Li1  1  0.89045000  0.89045000  0.89045000  1.0
  Li+  Li1  1  0.39045000  0.39045000  0.10955000  1.0
  Li+  Li1  1  0.39045000  0.39045000  0.60955000  1.0
  Li+  Li1  1  0.39045000  0.89045000  0.10955000  1.0
  Li+  Li1  1  0.39045000  0.89045000  0.60955000  1.0
  Li+  Li1  1  0.89045000  0.39045000  0.10955000  1.0
  Li+  Li1  1  0.89045000  0.39045000  0.60955000  1.0
  Li+  Li1  1  0.89045000  0.89045000  0.10955000  1.0
  Li+  Li1  1  0.89045000  0.89045000  0.60955000  1.0
  Li+  Li1  1  0.39045000  0.10955000  0.39045000  1.0
  Li+  Li1  1  0.39045000  0.10955000  0.89045000  1.0
  Li+  Li1  1  0.39045000  0.60955000  0.39045000  1.0
  Li+  Li1  1  0.39045000  0.60955000  0.89045000  1.0
  Li+  Li1  1  0.89045000  0.10955000  0.39045000  1.0
  Li+  Li1  1  0.89045000  0.10955000  0.89045000  1.0
  Li+  Li1  1  0.89045000  0.60955000  0.39045000  1.0
  Li+  Li1  1  0.89045000  0.60955000  0.89045000  1.0
  Li+  Li1  1  0.10955000  0.39045000  0.39045000  1.0
  Li+  Li1  1  0.10955000  0.39045000  0.89045000  1.0
  Li+  Li1  1  0.10955000  0.89045000  0.39045000  1.0
  Li+  Li1  1  0.10955000  0.89045000  0.89045000  1.0
  Li+  Li1  1  0.60955000  0.39045000  0.39045000  1.0
  Li+  Li1  1  0.60955000  0.39045000  0.89045000  1.0
  Li+  Li1  1  0.60955000  0.89045000  0.39045000  1.0
  Li+  Li1  1  0.60955000  0.89045000  0.89045000  1.0
  Li+  Li1  1  0.10955000  0.10955000  0.10955000  1.0
  Li+  Li1  1  0.10955000  0.10955000  0.60955000  1.0
  Li+  Li1  1  0.10955000  0.60955000  0.10955000  1.0
  Li+  Li1  1  0.10955000  0.60955000  0.60955000  1.0
  Li+  Li1  1  0.60955000  0.10955000  0.10955000  1.0
  Li+  Li1  1  0.60955000  0.10955000  0.60955000  1.0
  Li+  Li1  1  0.60955000  0.60955000  0.10955000  1.0
  Li+  Li1  1  0.60955000  0.60955000  0.60955000  1.0
  Li+  Li2  1  0.25000000  0.25000000  0.25000000  1.0
  Li+  Li2  1  0.25000000  0.25000000  0.75000000  1.0
  Li+  Li2  1  0.25000000  0.75000000  0.25000000  1.0
  Li+  Li2  1  0.25000000  0.75000000  0.75000000  1.0
  Li+  Li2  1  0.75000000  0.25000000  0.25000000  1.0
  Li+  Li2  1  0.75000000  0.25000000  0.75000000  1.0
  Li+  Li2  1  0.75000000  0.75000000  0.25000000  1.0
  Li+  Li2  1  0.75000000  0.75000000  0.75000000  1.0
  S2-  S1  1  0.25000000  0.25000000  0.00000000  1.0
  S2-  S1  1  0.25000000  0.25000000  0.50000000  1.0
  S2-  S1  1  0.25000000  0.75000000  0.00000000  1.0
  S2-  S1  1  0.25000000  0.75000000  0.50000000  1.0
  S2-  S1  1  0.75000000  0.25000000  0.00000000  1.0
  S2-  S1  1  0.75000000  0.25000000  0.50000000  1.0
  S2-  S1  1  0.75000000  0.75000000  0.00000000  1.0
  S2-  S1  1  0.75000000  0.75000000  0.50000000  1.0
  S2-  S1  1  0.25000000  0.00000000  0.25000000  1.0
  S2-  S1  1  0.25000000  0.00000000  0.75000000  1.0
  S2-  S1  1  0.25000000  0.50000000  0.25000000  1.0
  S2-  S1  1  0.25000000  0.50000000  0.75000000  1.0
  S2-  S1  1  0.75000000  0.00000000  0.25000000  1.0
  S2-  S1  1  0.75000000  0.00000000  0.75000000  1.0
  S2-  S1  1  0.75000000  0.50000000  0.25000000  1.0
  S2-  S1  1  0.75000000  0.50000000  0.75000000  1.0
  S2-  S1  1  0.00000000  0.25000000  0.25000000  1.0
  S2-  S1  1  0.00000000  0.25000000  0.75000000  1.0
  S2-  S1  1  0.00000000  0.75000000  0.25000000  1.0
  S2-  S1  1  0.00000000  0.75000000  0.75000000  1.0
  S2-  S1  1  0.50000000  0.25000000  0.25000000  1.0
  S2-  S1  1  0.50000000  0.25000000  0.75000000  1.0
  S2-  S1  1  0.50000000  0.75000000  0.25000000  1.0
  S2-  S1  1  0.50000000  0.75000000  0.75000000  1.0
  N3-  N1  1  0.00000000  0.00000000  0.00000000  1.0
  N3-  N1  1  0.00000000  0.00000000  0.50000000  1.0
  N3-  N1  1  0.00000000  0.50000000  0.00000000  1.0
  N3-  N1  1  0.00000000  0.50000000  0.50000000  1.0
  N3-  N1  1  0.50000000  0.00000000  0.00000000  1.0
  N3-  N1  1  0.50000000  0.00000000  0.50000000  1.0
  N3-  N1  1  0.50000000  0.50000000  0.00000000  1.0
  N3-  N1  1  0.50000000  0.50000000  0.50000000  1.0
