# generated using pymatgen
data_Li4B7ClO12
_symmetry_space_group_name_H-M   'P 1'
_cell_length_a   17.18406656
_cell_length_b   8.59203328
_cell_length_c   17.18406657
_cell_angle_alpha   60.00000000
_cell_angle_beta   60.00000000
_cell_angle_gamma   60.00000000
_symmetry_Int_Tables_number   1
_chemical_formula_structural   Li4B7ClO12
_chemical_formula_sum   'Li32 B56 Cl8 O96'
_cell_volume   1794.04298869
_cell_formula_units_Z   8
loop_
 _symmetry_equiv_pos_site_id
 _symmetry_equiv_pos_as_xyz
  1  'x, y, z'
loop_
 _atom_type_symbol
 _atom_type_oxidation_number
  Li+  1.0
  B3+  3.0
  Cl-  -1.0
  O2-  -2.0
loop_
 _atom_site_type_symbol
 _atom_site_label
 _atom_site_symmetry_multiplicity
 _atom_site_fract_x
 _atom_site_fract_y
 _atom_site_fract_z
 _atom_site_occupancy
  Li+  Li0  1  0.06970000  0.58180000  0.06970000  1.0
  Li+  Li0  1  0.56970000  0.58180000  0.06970000  1.0
  Li+  Li1  1  0.06970000  0.13940000  0.56970000  1.0
  Li+  Li1  1  0.56970000  0.13940000  0.56970000  1.0
  Li+  Li2  1  0.04090000  0.63940000  0.81970000  1.0
  Li+  Li2  1  0.54090000  0.63940000  0.81970000  1.0
  Li+  Li3  1  0.31970000  0.63940000  0.04090000  1.0
  Li+  Li3  1  0.81970000  0.63940000  0.04090000  1.0
  Li+  Li4  1  0.31970000  0.63940000  0.54090000  1.0
  Li+  Li4  1  0.81970000  0.63940000  0.54090000  1.0
  Li+  Li5  1  0.25000000  0.00000000  0.50000000  1.0
  Li+  Li5  1  0.75000000  0.00000000  0.50000000  1.0
  Li+  Li6  1  0.25000000  0.00000000  0.00000000  1.0
  Li+  Li6  1  0.75000000  0.00000000  1.00000000  1.0
  Li+  Li7  1  0.25000000  0.00000000  0.25000000  1.0
  Li+  Li7  1  0.75000000  0.00000000  0.25000000  1.0
  Li+  Li8  1  0.25000000  0.00000000  0.75000000  1.0
  Li+  Li8  1  0.75000000  0.00000000  0.75000000  1.0
  Li+  Li9  1  0.00000000  0.00000000  0.25000000  1.0
  Li+  Li9  1  0.50000000  0.00000000  0.25000000  1.0
  Li+  Li10  1  0.00000000  0.00000000  0.75000000  1.0
  Li+  Li10  1  0.50000000  0.00000000  0.75000000  1.0
  Li+  Li11  1  0.00000000  0.50000000  0.50000000  1.0
  Li+  Li11  1  0.50000000  0.50000000  0.50000000  1.0
  Li+  Li12  1  0.25000000  0.50000000  0.00000000  1.0
  Li+  Li12  1  0.75000000  0.50000000  1.00000000  1.0
  Li+  Li13  1  0.25000000  0.50000000  0.50000000  1.0
  Li+  Li13  1  0.75000000  0.50000000  0.50000000  1.0
  Li+  Li14  1  0.00000000  0.50000000  0.25000000  1.0
  Li+  Li14  1  0.50000000  0.50000000  0.25000000  1.0
  Li+  Li15  1  0.00000000  0.50000000  0.75000000  1.0
  Li+  Li15  1  0.50000000  0.50000000  0.75000000  1.0
  B3+  B1  1  0.12500000  0.75000000  0.37500000  1.0
  B3+  B1  1  0.62500000  0.75000000  0.37500000  1.0
  B3+  B1  1  0.12500000  0.75000000  0.87500000  1.0
  B3+  B1  1  0.62500000  0.75000000  0.87500000  1.0
  B3+  B1  1  0.12500000  0.75000000  0.12500000  1.0
  B3+  B1  1  0.62500000  0.75000000  0.12500000  1.0
  B3+  B1  1  0.12500000  0.75000000  0.62500000  1.0
  B3+  B1  1  0.62500000  0.75000000  0.62500000  1.0
  B3+  B1  1  0.37500000  0.75000000  0.12500000  1.0
  B3+  B1  1  0.87500000  0.75000000  0.12500000  1.0
  B3+  B1  1  0.37500000  0.75000000  0.62500000  1.0
  B3+  B1  1  0.87500000  0.75000000  0.62500000  1.0
  B3+  B1  1  0.37500000  0.25000000  0.37500000  1.0
  B3+  B1  1  0.87500000  0.25000000  0.37500000  1.0
  B3+  B1  1  0.37500000  0.25000000  0.87500000  1.0
  B3+  B1  1  0.87500000  0.25000000  0.87500000  1.0
  B3+  B1  1  0.12500000  0.25000000  0.37500000  1.0
  B3+  B1  1  0.62500000  0.25000000  0.37500000  1.0
  B3+  B1  1  0.12500000  0.25000000  0.87500000  1.0
  B3+  B1  1  0.62500000  0.25000000  0.87500000  1.0
  B3+  B1  1  0.37500000  0.25000000  0.12500000  1.0
  B3+  B1  1  0.87500000  0.25000000  0.12500000  1.0
  B3+  B1  1  0.37500000  0.25000000  0.62500000  1.0
  B3+  B1  1  0.87500000  0.25000000  0.62500000  1.0
  B3+  B2  1  0.19965000  0.80210000  0.19965000  1.0
  B3+  B2  1  0.69965000  0.80210000  0.19965000  1.0
  B3+  B2  1  0.19965000  0.80210000  0.69965000  1.0
  B3+  B2  1  0.69965000  0.80210000  0.69965000  1.0
  B3+  B2  1  0.19965000  0.39930000  0.40105000  1.0
  B3+  B2  1  0.69965000  0.39930000  0.40105000  1.0
  B3+  B2  1  0.19965000  0.39930000  0.90105000  1.0
  B3+  B2  1  0.69965000  0.39930000  0.90105000  1.0
  B3+  B2  1  0.40105000  0.39930000  0.19965000  1.0
  B3+  B2  1  0.90105000  0.39930000  0.19965000  1.0
  B3+  B2  1  0.40105000  0.39930000  0.69965000  1.0
  B3+  B2  1  0.90105000  0.39930000  0.69965000  1.0
  B3+  B2  1  0.19965000  0.39930000  0.19965000  1.0
  B3+  B2  1  0.69965000  0.39930000  0.19965000  1.0
  B3+  B2  1  0.19965000  0.39930000  0.69965000  1.0
  B3+  B2  1  0.69965000  0.39930000  0.69965000  1.0
  B3+  B2  1  0.15105000  0.89930000  0.44965000  1.0
  B3+  B2  1  0.65105000  0.89930000  0.44965000  1.0
  B3+  B2  1  0.15105000  0.89930000  0.94965000  1.0
  B3+  B2  1  0.65105000  0.89930000  0.94965000  1.0
  B3+  B2  1  0.44965000  0.89930000  0.15105000  1.0
  B3+  B2  1  0.94965000  0.89930000  0.15105000  1.0
  B3+  B2  1  0.44965000  0.89930000  0.65105000  1.0
  B3+  B2  1  0.94965000  0.89930000  0.65105000  1.0
  B3+  B2  1  0.44965000  0.30210000  0.44965000  1.0
  B3+  B2  1  0.94965000  0.30210000  0.44965000  1.0
  B3+  B2  1  0.44965000  0.30210000  0.94965000  1.0
  B3+  B2  1  0.94965000  0.30210000  0.94965000  1.0
  B3+  B2  1  0.44965000  0.89930000  0.44965000  1.0
  B3+  B2  1  0.94965000  0.89930000  0.44965000  1.0
  B3+  B2  1  0.44965000  0.89930000  0.94965000  1.0
  B3+  B2  1  0.94965000  0.89930000  0.94965000  1.0
  Cl-  Cl1  1  0.12500000  0.25000000  0.12500000  1.0
  Cl-  Cl1  1  0.62500000  0.25000000  0.12500000  1.0
  Cl-  Cl1  1  0.12500000  0.25000000  0.62500000  1.0
  Cl-  Cl1  1  0.62500000  0.25000000  0.62500000  1.0
  Cl-  Cl1  1  0.37500000  0.75000000  0.37500000  1.0
  Cl-  Cl1  1  0.87500000  0.75000000  0.37500000  1.0
  Cl-  Cl1  1  0.37500000  0.75000000  0.87500000  1.0
  Cl-  Cl1  1  0.87500000  0.75000000  0.87500000  1.0
  O2-  O1  1  0.18060500  0.00241000  0.22029500  1.0
  O2-  O1  1  0.68060500  0.00241000  0.22029500  1.0
  O2-  O1  1  0.18060500  0.00241000  0.72029500  1.0
  O2-  O1  1  0.68060500  0.00241000  0.72029500  1.0
  O2-  O1  1  0.09789500  0.00241000  0.18060500  1.0
  O2-  O1  1  0.59789500  0.00241000  0.18060500  1.0
  O2-  O1  1  0.09789500  0.00241000  0.68060500  1.0
  O2-  O1  1  0.59789500  0.00241000  0.68060500  1.0
  O2-  O1  1  0.22029500  0.00241000  0.09789500  1.0
  O2-  O1  1  0.72029500  0.00241000  0.09789500  1.0
  O2-  O1  1  0.22029500  0.00241000  0.59789500  1.0
  O2-  O1  1  0.72029500  0.00241000  0.59789500  1.0
  O2-  O1  1  0.09789500  0.44059000  0.00120500  1.0
  O2-  O1  1  0.59789500  0.44059000  0.00120500  1.0
  O2-  O1  1  0.09789500  0.44059000  0.50120500  1.0
  O2-  O1  1  0.59789500  0.44059000  0.50120500  1.0
  O2-  O1  1  0.22029500  0.36121000  0.00120500  1.0
  O2-  O1  1  0.72029500  0.36121000  0.00120500  1.0
  O2-  O1  1  0.22029500  0.36121000  0.50120500  1.0
  O2-  O1  1  0.72029500  0.36121000  0.50120500  1.0
  O2-  O1  1  0.18060500  0.19579000  0.00120500  1.0
  O2-  O1  1  0.68060500  0.19579000  0.00120500  1.0
  O2-  O1  1  0.18060500  0.19579000  0.50120500  1.0
  O2-  O1  1  0.68060500  0.19579000  0.50120500  1.0
  O2-  O1  1  0.00120500  0.36121000  0.09789500  1.0
  O2-  O1  1  0.50120500  0.36121000  0.09789500  1.0
  O2-  O1  1  0.00120500  0.36121000  0.59789500  1.0
  O2-  O1  1  0.50120500  0.36121000  0.59789500  1.0
  O2-  O1  1  0.00120500  0.19579000  0.22029500  1.0
  O2-  O1  1  0.50120500  0.19579000  0.22029500  1.0
  O2-  O1  1  0.00120500  0.19579000  0.72029500  1.0
  O2-  O1  1  0.50120500  0.19579000  0.72029500  1.0
  O2-  O1  1  0.00120500  0.44059000  0.18060500  1.0
  O2-  O1  1  0.50120500  0.44059000  0.18060500  1.0
  O2-  O1  1  0.00120500  0.44059000  0.68060500  1.0
  O2-  O1  1  0.50120500  0.44059000  0.68060500  1.0
  O2-  O1  1  0.22029500  0.19579000  0.18060500  1.0
  O2-  O1  1  0.72029500  0.19579000  0.18060500  1.0
  O2-  O1  1  0.22029500  0.19579000  0.68060500  1.0
  O2-  O1  1  0.72029500  0.19579000  0.68060500  1.0
  O2-  O1  1  0.18060500  0.44059000  0.09789500  1.0
  O2-  O1  1  0.68060500  0.44059000  0.09789500  1.0
  O2-  O1  1  0.18060500  0.44059000  0.59789500  1.0
  O2-  O1  1  0.68060500  0.44059000  0.59789500  1.0
  O2-  O1  1  0.09789500  0.36121000  0.22029500  1.0
  O2-  O1  1  0.59789500  0.36121000  0.22029500  1.0
  O2-  O1  1  0.09789500  0.36121000  0.72029500  1.0
  O2-  O1  1  0.59789500  0.36121000  0.72029500  1.0
  O2-  O1  1  0.25120500  0.86121000  0.47029500  1.0
  O2-  O1  1  0.75120500  0.86121000  0.47029500  1.0
  O2-  O1  1  0.25120500  0.86121000  0.97029500  1.0
  O2-  O1  1  0.75120500  0.86121000  0.97029500  1.0
  O2-  O1  1  0.25120500  0.69579000  0.43060500  1.0
  O2-  O1  1  0.75120500  0.69579000  0.43060500  1.0
  O2-  O1  1  0.25120500  0.69579000  0.93060500  1.0
  O2-  O1  1  0.75120500  0.69579000  0.93060500  1.0
  O2-  O1  1  0.25120500  0.94059000  0.34789500  1.0
  O2-  O1  1  0.75120500  0.94059000  0.34789500  1.0
  O2-  O1  1  0.25120500  0.94059000  0.84789500  1.0
  O2-  O1  1  0.75120500  0.94059000  0.84789500  1.0
  O2-  O1  1  0.47029500  0.69579000  0.25120500  1.0
  O2-  O1  1  0.97029500  0.69579000  0.25120500  1.0
  O2-  O1  1  0.47029500  0.69579000  0.75120500  1.0
  O2-  O1  1  0.97029500  0.69579000  0.75120500  1.0
  O2-  O1  1  0.43060500  0.94059000  0.25120500  1.0
  O2-  O1  1  0.93060500  0.94059000  0.25120500  1.0
  O2-  O1  1  0.43060500  0.94059000  0.75120500  1.0
  O2-  O1  1  0.93060500  0.94059000  0.75120500  1.0
  O2-  O1  1  0.34789500  0.86121000  0.25120500  1.0
  O2-  O1  1  0.84789500  0.86121000  0.25120500  1.0
  O2-  O1  1  0.34789500  0.86121000  0.75120500  1.0
  O2-  O1  1  0.84789500  0.86121000  0.75120500  1.0
  O2-  O1  1  0.43060500  0.50241000  0.34789500  1.0
  O2-  O1  1  0.93060500  0.50241000  0.34789500  1.0
  O2-  O1  1  0.43060500  0.50241000  0.84789500  1.0
  O2-  O1  1  0.93060500  0.50241000  0.84789500  1.0
  O2-  O1  1  0.34789500  0.50241000  0.47029500  1.0
  O2-  O1  1  0.84789500  0.50241000  0.47029500  1.0
  O2-  O1  1  0.34789500  0.50241000  0.97029500  1.0
  O2-  O1  1  0.84789500  0.50241000  0.97029500  1.0
  O2-  O1  1  0.47029500  0.50241000  0.43060500  1.0
  O2-  O1  1  0.97029500  0.50241000  0.43060500  1.0
  O2-  O1  1  0.47029500  0.50241000  0.93060500  1.0
  O2-  O1  1  0.97029500  0.50241000  0.93060500  1.0
  O2-  O1  1  0.34789500  0.94059000  0.43060500  1.0
  O2-  O1  1  0.84789500  0.94059000  0.43060500  1.0
  O2-  O1  1  0.34789500  0.94059000  0.93060500  1.0
  O2-  O1  1  0.84789500  0.94059000  0.93060500  1.0
  O2-  O1  1  0.47029500  0.86121000  0.34789500  1.0
  O2-  O1  1  0.97029500  0.86121000  0.34789500  1.0
  O2-  O1  1  0.47029500  0.86121000  0.84789500  1.0
  O2-  O1  1  0.97029500  0.86121000  0.84789500  1.0
  O2-  O1  1  0.43060500  0.69579000  0.47029500  1.0
  O2-  O1  1  0.93060500  0.69579000  0.47029500  1.0
  O2-  O1  1  0.43060500  0.69579000  0.97029500  1.0
  O2-  O1  1  0.93060500  0.69579000  0.97029500  1.0
