# generated using pymatgen
data_Li2ZrCl6
_symmetry_space_group_name_H-M   'P 1'
_cell_length_a   11.86180000
_cell_length_b   21.94200000
_cell_length_c   10.97100000
_cell_angle_alpha   120.00000000
_cell_angle_beta   90.00000000
_cell_angle_gamma   90.00000000
_symmetry_Int_Tables_number   1
_chemical_formula_structural   Li2ZrCl6
_chemical_formula_sum   'Li24 Zr12 Cl72'
_cell_volume   2472.88348783
_cell_formula_units_Z   12
loop_
 _symmetry_equiv_pos_site_id
 _symmetry_equiv_pos_as_xyz
  1  'x, y, z'
loop_
 _atom_type_symbol
 _atom_type_oxidation_number
  Li+  1.0
  Zr4+  4.0
  Cl-  -1.0
loop_
 _atom_site_type_symbol
 _atom_site_label
 _atom_site_symmetry_multiplicity
 _atom_site_fract_x
 _atom_site_fract_y
 _atom_site_fract_z
 _atom_site_occupancy
  Li+  Li0  1  0.50000000  0.84500000  0.44000000  1.0
  Li+  Li1  1  0.00000000  0.84500000  0.75000000  1.0
  Li+  Li2  1  0.00000000  0.65500000  0.75000000  1.0
  Li+  Li3  1  0.50000000  0.50000000  0.44000000  1.0
  Li+  Li4  1  0.00000000  0.00000000  0.44000000  1.0
  Li+  Li5  1  0.25000000  0.66100000  0.07200000  1.0
  Li+  Li6  1  0.25501360  0.15798640  0.07184941  1.0
  Li+  Li7  1  0.75000000  0.66100000  0.07200000  1.0
  Li+  Li8  1  0.75131802  0.16036509  0.07501268  1.0
  Li+  Li9  1  0.24955655  0.83551535  0.42778225  1.0
  Li+  Li10  1  0.25000000  0.33900000  0.42800000  1.0
  Li+  Li11  1  0.75000000  0.83900000  0.42800000  1.0
  Li+  Li12  1  0.75000000  0.33900000  0.42800000  1.0
  Li+  Li13  1  0.25008093  0.33562620  0.74975893  1.0
  Li+  Li14  1  0.75000000  0.33900000  0.75000000  1.0
  Li+  Li15  1  0.25043308  0.65963284  0.75133660  1.0
  Li+  Li16  1  0.75000000  0.66100000  0.75000000  1.0
  Li+  Li17  1  0.75000000  0.16100000  0.75000000  1.0
  Li+  Li18  1  0.25000000  0.50000000  0.42800000  1.0
  Li+  Li19  1  0.75000000  0.50000000  0.42800000  1.0
  Li+  Li20  1  0.25000000  0.00000000  0.07200000  1.0
  Li+  Li21  1  0.24632353  0.49838855  0.06922869  1.0
  Li+  Li22  1  0.75411581  0.00143570  0.07234463  1.0
  Li+  Li23  1  0.75000000  0.50000000  0.07200000  1.0
  Zr4+  Zr24  1  0.97000000  0.16500000  0.41000000  1.0
  Zr4+  Zr25  1  0.47000000  0.17000000  0.42000000  1.0
  Zr4+  Zr26  1  0.00000000  0.00000000  0.75000000  1.0
  Zr4+  Zr27  1  0.49841320  0.99918232  0.75153892  1.0
  Zr4+  Zr28  1  0.50096410  0.49881191  0.74945473  1.0
  Zr4+  Zr29  1  0.23900000  0.83500000  0.08000000  1.0
  Zr4+  Zr30  1  0.23900000  0.33500000  0.08000000  1.0
  Zr4+  Zr31  1  0.73863615  0.83519107  0.07565116  1.0
  Zr4+  Zr32  1  0.73900000  0.33500000  0.08000000  1.0
  Zr4+  Zr33  1  0.26100000  0.66500000  0.42000000  1.0
  Zr4+  Zr34  1  0.25000000  0.50000000  0.75000000  1.0
  Zr4+  Zr35  1  0.75000000  0.00000000  0.75000000  1.0
  Cl-  Cl36  1  0.37121426  0.60162679  0.85449342  1.0
  Cl-  Cl37  1  0.37500000  0.10000000  0.85000000  1.0
  Cl-  Cl38  1  0.87500000  0.60000000  0.85000000  1.0
  Cl-  Cl39  1  0.87500000  0.10000000  0.85000000  1.0
  Cl-  Cl40  1  0.12500000  0.90000000  0.65000000  1.0
  Cl-  Cl41  1  0.12500000  0.40000000  0.65000000  1.0
  Cl-  Cl42  1  0.62500000  0.90000000  0.65000000  1.0
  Cl-  Cl43  1  0.62607017  0.40290671  0.65015264  1.0
  Cl-  Cl44  1  0.37595018  0.94933313  0.84742101  1.0
  Cl-  Cl45  1  0.37521607  0.45317981  0.84831684  1.0
  Cl-  Cl46  1  0.87384966  0.94732005  0.84921926  1.0
  Cl-  Cl47  1  0.87500000  0.45000000  0.85000000  1.0
  Cl-  Cl48  1  0.12500000  0.55000000  0.65000000  1.0
  Cl-  Cl49  1  0.12500000  0.05000000  0.65000000  1.0
  Cl-  Cl50  1  0.62500000  0.55000000  0.65000000  1.0
  Cl-  Cl51  1  0.63032860  0.04809716  0.65176168  1.0
  Cl-  Cl52  1  0.37500000  0.95000000  0.55000000  1.0
  Cl-  Cl53  1  0.37500000  0.45000000  0.55000000  1.0
  Cl-  Cl54  1  0.87500000  0.95000000  0.55000000  1.0
  Cl-  Cl55  1  0.87500000  0.45000000  0.55000000  1.0
  Cl-  Cl56  1  0.12500000  0.55000000  0.95000000  1.0
  Cl-  Cl57  1  0.12500000  0.05000000  0.95000000  1.0
  Cl-  Cl58  1  0.62500000  0.55000000  0.95000000  1.0
  Cl-  Cl59  1  0.61977004  0.04809428  0.95103546  1.0
  Cl-  Cl60  1  0.36000000  0.72000000  0.97000000  1.0
  Cl-  Cl61  1  0.36000000  0.22000000  0.97000000  1.0
  Cl-  Cl62  1  0.86000000  0.72000000  0.97000000  1.0
  Cl-  Cl63  1  0.86000000  0.22000000  0.97000000  1.0
  Cl-  Cl64  1  0.14418985  0.77982169  0.53028554  1.0
  Cl-  Cl65  1  0.14000000  0.28000000  0.53000000  1.0
  Cl-  Cl66  1  0.64000000  0.78000000  0.53000000  1.0
  Cl-  Cl67  1  0.64000000  0.28000000  0.53000000  1.0
  Cl-  Cl68  1  0.36000000  0.89000000  0.97000000  1.0
  Cl-  Cl69  1  0.36000000  0.39000000  0.97000000  1.0
  Cl-  Cl70  1  0.86004923  0.88845797  0.97032577  1.0
  Cl-  Cl71  1  0.86000000  0.39000000  0.97000000  1.0
  Cl-  Cl72  1  0.14000000  0.61000000  0.53000000  1.0
  Cl-  Cl73  1  0.14000000  0.11000000  0.53000000  1.0
  Cl-  Cl74  1  0.63938484  0.61091047  0.53200975  1.0
  Cl-  Cl75  1  0.64529444  0.11473411  0.53172168  1.0
  Cl-  Cl76  1  0.36000000  0.89000000  0.31000000  1.0
  Cl-  Cl77  1  0.35723116  0.38814280  0.31199858  1.0
  Cl-  Cl78  1  0.86000000  0.89000000  0.31000000  1.0
  Cl-  Cl79  1  0.86000000  0.39000000  0.31000000  1.0
  Cl-  Cl80  1  0.14000000  0.61000000  0.19000000  1.0
  Cl-  Cl81  1  0.13660306  0.11013560  0.19613268  1.0
  Cl-  Cl82  1  0.64000000  0.61000000  0.19000000  1.0
  Cl-  Cl83  1  0.64000000  0.11000000  0.19000000  1.0
  Cl-  Cl84  1  0.11620000  0.94000000  0.19000000  1.0
  Cl-  Cl85  1  0.11620000  0.44000000  0.19000000  1.0
  Cl-  Cl86  1  0.61794155  0.93806011  0.18745041  1.0
  Cl-  Cl87  1  0.61620000  0.44000000  0.19000000  1.0
  Cl-  Cl88  1  0.38380000  0.56000000  0.31000000  1.0
  Cl-  Cl89  1  0.38471002  0.06054648  0.30935049  1.0
  Cl-  Cl90  1  0.88380000  0.56000000  0.31000000  1.0
  Cl-  Cl91  1  0.88380000  0.06000000  0.31000000  1.0
  Cl-  Cl92  1  0.11620000  0.78000000  0.19000000  1.0
  Cl-  Cl93  1  0.11620000  0.28000000  0.19000000  1.0
  Cl-  Cl94  1  0.61055027  0.77862833  0.19356095  1.0
  Cl-  Cl95  1  0.61620000  0.28000000  0.19000000  1.0
  Cl-  Cl96  1  0.38380000  0.72000000  0.31000000  1.0
  Cl-  Cl97  1  0.38380000  0.22000000  0.31000000  1.0
  Cl-  Cl98  1  0.88380000  0.72000000  0.31000000  1.0
  Cl-  Cl99  1  0.88380000  0.22000000  0.31000000  1.0
  Cl-  Cl100  1  0.11620000  0.78000000  0.87000000  1.0
  Cl-  Cl101  1  0.11620000  0.28000000  0.87000000  1.0
  Cl-  Cl102  1  0.61620000  0.78000000  0.87000000  1.0
  Cl-  Cl103  1  0.61620000  0.28000000  0.87000000  1.0
  Cl-  Cl104  1  0.38380000  0.72000000  0.63000000  1.0
  Cl-  Cl105  1  0.38200644  0.21857313  0.62890673  1.0
  Cl-  Cl106  1  0.88380000  0.72000000  0.63000000  1.0
  Cl-  Cl107  1  0.88380000  0.22000000  0.63000000  1.0
