# generated using pymatgen
data_Li2ZrCl6
_symmetry_space_group_name_H-M   'P 1'
_cell_length_a   11.00842055
_cell_length_b   11.90225895
_cell_length_c   22.01684110
_cell_angle_alpha   90.00000000
_cell_angle_beta   60.00000000
_cell_angle_gamma   90.00000000
_symmetry_Int_Tables_number   1
_chemical_formula_structural   Li2ZrCl6
_chemical_formula_sum   'Li24 Zr12 Cl72'
_cell_volume   2498.27387693
_cell_formula_units_Z   12
loop_
 _symmetry_equiv_pos_site_id
 _symmetry_equiv_pos_as_xyz
  1  'x, y, z'
loop_
 _atom_type_symbol
 _atom_type_oxidation_number
  Li+  1.0
  Zr4+  4.0
  Cl-  -1.0
loop_
 _atom_site_type_symbol
 _atom_site_label
 _atom_site_symmetry_multiplicity
 _atom_site_fract_x
 _atom_site_fract_y
 _atom_site_fract_z
 _atom_site_occupancy
  Li+  Li0  1  0.69000000  0.16666667  0.15500000  1.0
  Li+  Li1  1  0.00000000  0.66666667  0.15500000  1.0
  Li+  Li2  1  0.00000000  0.66666667  0.34500000  1.0
  Li+  Li3  1  0.69000000  0.16666667  0.50000000  1.0
  Li+  Li4  1  0.69000000  0.66666667  0.00000000  1.0
  Li+  Li5  1  0.32200000  0.41666667  0.33900000  1.0
  Li+  Li6  1  0.32200000  0.41666667  0.83900000  1.0
  Li+  Li7  1  0.32200000  0.91666667  0.33900000  1.0
  Li+  Li8  1  0.32200000  0.91666667  0.83900000  1.0
  Li+  Li9  1  0.67800000  0.41666667  0.16100000  1.0
  Li+  Li10  1  0.67800000  0.41666667  0.66100000  1.0
  Li+  Li11  1  0.67800000  0.91666667  0.16100000  1.0
  Li+  Li12  1  0.67800000  0.91666667  0.66100000  1.0
  Li+  Li13  1  0.00000000  0.41666667  0.66100000  1.0
  Li+  Li14  1  0.00000000  0.91666667  0.66100000  1.0
  Li+  Li15  1  0.00000000  0.41666667  0.33900000  1.0
  Li+  Li16  1  0.00000000  0.91666667  0.33900000  1.0
  Li+  Li17  1  0.00000000  0.91666667  0.83900000  1.0
  Li+  Li18  1  0.67800000  0.41666667  0.50000000  1.0
  Li+  Li19  1  0.67800000  0.91666667  0.50000000  1.0
  Li+  Li20  1  0.32200000  0.41666667  0.00000000  1.0
  Li+  Li21  1  0.32200000  0.41666667  0.50000000  1.0
  Li+  Li22  1  0.32200000  0.91666667  0.00000000  1.0
  Li+  Li23  1  0.32200000  0.91666667  0.50000000  1.0
  Zr4+  Zr24  1  0.66000000  0.69666667  0.83500000  1.0
  Zr4+  Zr25  1  0.67000000  0.19666667  0.83000000  1.0
  Zr4+  Zr26  1  0.00000000  0.66666667  0.00000000  1.0
  Zr4+  Zr27  1  0.00000000  0.16666667  0.00000000  1.0
  Zr4+  Zr28  1  0.00000000  0.16666667  0.50000000  1.0
  Zr4+  Zr29  1  0.33000000  0.42766667  0.16500000  1.0
  Zr4+  Zr30  1  0.33000000  0.42766667  0.66500000  1.0
  Zr4+  Zr31  1  0.33000000  0.92766667  0.16500000  1.0
  Zr4+  Zr32  1  0.33000000  0.92766667  0.66500000  1.0
  Zr4+  Zr33  1  0.67000000  0.40566667  0.33500000  1.0
  Zr4+  Zr34  1  0.00000000  0.41666667  0.50000000  1.0
  Zr4+  Zr35  1  0.00000000  0.91666667  0.00000000  1.0
  Cl-  Cl36  1  0.10000000  0.29166667  0.40000000  1.0
  Cl-  Cl37  1  0.10000000  0.29166667  0.90000000  1.0
  Cl-  Cl38  1  0.10000000  0.79166667  0.40000000  1.0
  Cl-  Cl39  1  0.10000000  0.79166667  0.90000000  1.0
  Cl-  Cl40  1  0.90000000  0.54166667  0.10000000  1.0
  Cl-  Cl41  1  0.90000000  0.54166667  0.60000000  1.0
  Cl-  Cl42  1  0.90000000  0.04166667  0.10000000  1.0
  Cl-  Cl43  1  0.90000000  0.04166667  0.60000000  1.0
  Cl-  Cl44  1  0.10000000  0.29166667  0.05000000  1.0
  Cl-  Cl45  1  0.10000000  0.29166667  0.55000000  1.0
  Cl-  Cl46  1  0.10000000  0.79166667  0.05000000  1.0
  Cl-  Cl47  1  0.10000000  0.79166667  0.55000000  1.0
  Cl-  Cl48  1  0.90000000  0.54166667  0.45000000  1.0
  Cl-  Cl49  1  0.90000000  0.54166667  0.95000000  1.0
  Cl-  Cl50  1  0.90000000  0.04166667  0.45000000  1.0
  Cl-  Cl51  1  0.90000000  0.04166667  0.95000000  1.0
  Cl-  Cl52  1  0.80000000  0.29166667  0.05000000  1.0
  Cl-  Cl53  1  0.80000000  0.29166667  0.55000000  1.0
  Cl-  Cl54  1  0.80000000  0.79166667  0.05000000  1.0
  Cl-  Cl55  1  0.80000000  0.79166667  0.55000000  1.0
  Cl-  Cl56  1  0.20000000  0.54166667  0.45000000  1.0
  Cl-  Cl57  1  0.20000000  0.54166667  0.95000000  1.0
  Cl-  Cl58  1  0.20000000  0.04166667  0.45000000  1.0
  Cl-  Cl59  1  0.20000000  0.04166667  0.95000000  1.0
  Cl-  Cl60  1  0.22000000  0.30666667  0.28000000  1.0
  Cl-  Cl61  1  0.22000000  0.30666667  0.78000000  1.0
  Cl-  Cl62  1  0.22000000  0.80666667  0.28000000  1.0
  Cl-  Cl63  1  0.22000000  0.80666667  0.78000000  1.0
  Cl-  Cl64  1  0.78000000  0.52666667  0.22000000  1.0
  Cl-  Cl65  1  0.78000000  0.52666667  0.72000000  1.0
  Cl-  Cl66  1  0.78000000  0.02666667  0.22000000  1.0
  Cl-  Cl67  1  0.78000000  0.02666667  0.72000000  1.0
  Cl-  Cl68  1  0.22000000  0.30666667  0.11000000  1.0
  Cl-  Cl69  1  0.22000000  0.30666667  0.61000000  1.0
  Cl-  Cl70  1  0.22000000  0.80666667  0.11000000  1.0
  Cl-  Cl71  1  0.22000000  0.80666667  0.61000000  1.0
  Cl-  Cl72  1  0.78000000  0.52666667  0.39000000  1.0
  Cl-  Cl73  1  0.78000000  0.52666667  0.89000000  1.0
  Cl-  Cl74  1  0.78000000  0.02666667  0.39000000  1.0
  Cl-  Cl75  1  0.78000000  0.02666667  0.89000000  1.0
  Cl-  Cl76  1  0.56000000  0.30666667  0.11000000  1.0
  Cl-  Cl77  1  0.56000000  0.30666667  0.61000000  1.0
  Cl-  Cl78  1  0.56000000  0.80666667  0.11000000  1.0
  Cl-  Cl79  1  0.56000000  0.80666667  0.61000000  1.0
  Cl-  Cl80  1  0.44000000  0.52666667  0.39000000  1.0
  Cl-  Cl81  1  0.44000000  0.52666667  0.89000000  1.0
  Cl-  Cl82  1  0.44000000  0.02666667  0.39000000  1.0
  Cl-  Cl83  1  0.44000000  0.02666667  0.89000000  1.0
  Cl-  Cl84  1  0.44000000  0.55046667  0.06000000  1.0
  Cl-  Cl85  1  0.44000000  0.55046667  0.56000000  1.0
  Cl-  Cl86  1  0.44000000  0.05046667  0.06000000  1.0
  Cl-  Cl87  1  0.44000000  0.05046667  0.56000000  1.0
  Cl-  Cl88  1  0.56000000  0.28286667  0.44000000  1.0
  Cl-  Cl89  1  0.56000000  0.28286667  0.94000000  1.0
  Cl-  Cl90  1  0.56000000  0.78286667  0.44000000  1.0
  Cl-  Cl91  1  0.56000000  0.78286667  0.94000000  1.0
  Cl-  Cl92  1  0.44000000  0.55046667  0.22000000  1.0
  Cl-  Cl93  1  0.44000000  0.55046667  0.72000000  1.0
  Cl-  Cl94  1  0.44000000  0.05046667  0.22000000  1.0
  Cl-  Cl95  1  0.44000000  0.05046667  0.72000000  1.0
  Cl-  Cl96  1  0.56000000  0.28286667  0.28000000  1.0
  Cl-  Cl97  1  0.56000000  0.28286667  0.78000000  1.0
  Cl-  Cl98  1  0.56000000  0.78286667  0.28000000  1.0
  Cl-  Cl99  1  0.56000000  0.78286667  0.78000000  1.0
  Cl-  Cl100  1  0.12000000  0.55046667  0.22000000  1.0
  Cl-  Cl101  1  0.12000000  0.55046667  0.72000000  1.0
  Cl-  Cl102  1  0.12000000  0.05046667  0.22000000  1.0
  Cl-  Cl103  1  0.12000000  0.05046667  0.72000000  1.0
  Cl-  Cl104  1  0.88000000  0.28286667  0.28000000  1.0
  Cl-  Cl105  1  0.88000000  0.28286667  0.78000000  1.0
  Cl-  Cl106  1  0.88000000  0.78286667  0.28000000  1.0
  Cl-  Cl107  1  0.88000000  0.78286667  0.78000000  1.0
