# generated using pymatgen
data_Li2ZrCl6
_symmetry_space_group_name_H-M   'P 1'
_cell_length_a   11.86180000
_cell_length_b   10.97100000
_cell_length_c   21.94200000
_cell_angle_alpha   120.00000000
_cell_angle_beta   90.00000000
_cell_angle_gamma   90.00000000
_symmetry_Int_Tables_number   1
_chemical_formula_structural   Li2ZrCl6
_chemical_formula_sum   'Li24 Zr12 Cl72'
_cell_volume   2472.88348783
_cell_formula_units_Z   12
loop_
 _symmetry_equiv_pos_site_id
 _symmetry_equiv_pos_as_xyz
  1  'x, y, z'
loop_
 _atom_type_symbol
 _atom_type_oxidation_number
  Li+  1.0
  Zr4+  4.0
  Cl-  -1.0
loop_
 _atom_site_type_symbol
 _atom_site_label
 _atom_site_symmetry_multiplicity
 _atom_site_fract_x
 _atom_site_fract_y
 _atom_site_fract_z
 _atom_site_occupancy
  Li+  Li0  1  0.50000000  0.31000000  0.15500000  1.0
  Li+  Li1  1  0.00000000  0.00000000  0.15500000  1.0
  Li+  Li2  1  0.00000000  0.00000000  0.34500000  1.0
  Li+  Li3  1  0.50000000  0.31000000  0.50000000  1.0
  Li+  Li4  1  0.00000000  0.31000000  0.00000000  1.0
  Li+  Li5  1  0.25000000  0.67800000  0.33900000  1.0
  Li+  Li6  1  0.25000000  0.67800000  0.83900000  1.0
  Li+  Li7  1  0.75000000  0.67800000  0.33900000  1.0
  Li+  Li8  1  0.75000000  0.67800000  0.83900000  1.0
  Li+  Li9  1  0.25000000  0.32200000  0.16100000  1.0
  Li+  Li10  1  0.25000000  0.32200000  0.66100000  1.0
  Li+  Li11  1  0.75000000  0.32200000  0.16100000  1.0
  Li+  Li12  1  0.75000000  0.32200000  0.66100000  1.0
  Li+  Li13  1  0.25000000  0.00000000  0.66100000  1.0
  Li+  Li14  1  0.75000000  0.00000000  0.66100000  1.0
  Li+  Li15  1  0.25000000  0.00000000  0.33900000  1.0
  Li+  Li16  1  0.75000000  0.00000000  0.33900000  1.0
  Li+  Li17  1  0.75000000  0.00000000  0.83900000  1.0
  Li+  Li18  1  0.25000000  0.32200000  0.50000000  1.0
  Li+  Li19  1  0.75000000  0.32200000  0.50000000  1.0
  Li+  Li20  1  0.25000000  0.67800000  0.00000000  1.0
  Li+  Li21  1  0.25000000  0.67800000  0.50000000  1.0
  Li+  Li22  1  0.75000000  0.67800000  0.00000000  1.0
  Li+  Li23  1  0.75000000  0.67800000  0.50000000  1.0
  Zr4+  Zr24  1  0.97000000  0.34000000  0.83500000  1.0
  Zr4+  Zr25  1  0.47000000  0.33000000  0.83000000  1.0
  Zr4+  Zr26  1  0.00000000  0.00000000  0.00000000  1.0
  Zr4+  Zr27  1  0.50000000  0.00000000  0.00000000  1.0
  Zr4+  Zr28  1  0.50000000  0.00000000  0.50000000  1.0
  Zr4+  Zr29  1  0.23900000  0.67000000  0.16500000  1.0
  Zr4+  Zr30  1  0.23900000  0.67000000  0.66500000  1.0
  Zr4+  Zr31  1  0.73900000  0.67000000  0.16500000  1.0
  Zr4+  Zr32  1  0.73900000  0.67000000  0.66500000  1.0
  Zr4+  Zr33  1  0.26100000  0.33000000  0.33500000  1.0
  Zr4+  Zr34  1  0.25000000  0.00000000  0.50000000  1.0
  Zr4+  Zr35  1  0.75000000  0.00000000  0.00000000  1.0
  Cl-  Li6h  1  0.37500000  0.90000000  0.40000000  1.0
  Cl-  Li6h  1  0.37500000  0.90000000  0.90000000  1.0
  Cl-  Li6h  1  0.87500000  0.90000000  0.40000000  1.0
  Cl-  Li6h  1  0.87500000  0.90000000  0.90000000  1.0
  Cl-  Li6h  1  0.12500000  0.10000000  0.10000000  1.0
  Cl-  Li6h  1  0.12500000  0.10000000  0.60000000  1.0
  Cl-  Li6h  1  0.62500000  0.10000000  0.10000000  1.0
  Cl-  Li6h  1  0.62500000  0.10000000  0.60000000  1.0
  Cl-  Li6h  1  0.37500000  0.90000000  0.05000000  1.0
  Cl-  Li6h  1  0.37500000  0.90000000  0.55000000  1.0
  Cl-  Li6h  1  0.87500000  0.90000000  0.05000000  1.0
  Cl-  Li6h  1  0.87500000  0.90000000  0.55000000  1.0
  Cl-  Li6h  1  0.12500000  0.10000000  0.45000000  1.0
  Cl-  Li6h  1  0.12500000  0.10000000  0.95000000  1.0
  Cl-  Li6h  1  0.62500000  0.10000000  0.45000000  1.0
  Cl-  Li6h  1  0.62500000  0.10000000  0.95000000  1.0
  Cl-  Li6h  1  0.37500000  0.20000000  0.05000000  1.0
  Cl-  Li6h  1  0.37500000  0.20000000  0.55000000  1.0
  Cl-  Li6h  1  0.87500000  0.20000000  0.05000000  1.0
  Cl-  Li6h  1  0.87500000  0.20000000  0.55000000  1.0
  Cl-  Li6h  1  0.12500000  0.80000000  0.45000000  1.0
  Cl-  Li6h  1  0.12500000  0.80000000  0.95000000  1.0
  Cl-  Li6h  1  0.62500000  0.80000000  0.45000000  1.0
  Cl-  Li6h  1  0.62500000  0.80000000  0.95000000  1.0
  Cl-  Li6h  1  0.36000000  0.78000000  0.28000000  1.0
  Cl-  Li6h  1  0.36000000  0.78000000  0.78000000  1.0
  Cl-  Li6h  1  0.86000000  0.78000000  0.28000000  1.0
  Cl-  Li6h  1  0.86000000  0.78000000  0.78000000  1.0
  Cl-  Li6h  1  0.14000000  0.22000000  0.22000000  1.0
  Cl-  Li6h  1  0.14000000  0.22000000  0.72000000  1.0
  Cl-  Li6h  1  0.64000000  0.22000000  0.22000000  1.0
  Cl-  Li6h  1  0.64000000  0.22000000  0.72000000  1.0
  Cl-  Li6h  1  0.36000000  0.78000000  0.11000000  1.0
  Cl-  Li6h  1  0.36000000  0.78000000  0.61000000  1.0
  Cl-  Li6h  1  0.86000000  0.78000000  0.11000000  1.0
  Cl-  Li6h  1  0.86000000  0.78000000  0.61000000  1.0
  Cl-  Li6h  1  0.14000000  0.22000000  0.39000000  1.0
  Cl-  Li6h  1  0.14000000  0.22000000  0.89000000  1.0
  Cl-  Li6h  1  0.64000000  0.22000000  0.39000000  1.0
  Cl-  Li6h  1  0.64000000  0.22000000  0.89000000  1.0
  Cl-  Li6h  1  0.36000000  0.44000000  0.11000000  1.0
  Cl-  Li6h  1  0.36000000  0.44000000  0.61000000  1.0
  Cl-  Li6h  1  0.86000000  0.44000000  0.11000000  1.0
  Cl-  Li6h  1  0.86000000  0.44000000  0.61000000  1.0
  Cl-  Li6h  1  0.14000000  0.56000000  0.39000000  1.0
  Cl-  Li6h  1  0.14000000  0.56000000  0.89000000  1.0
  Cl-  Li6h  1  0.64000000  0.56000000  0.39000000  1.0
  Cl-  Li6h  1  0.64000000  0.56000000  0.89000000  1.0
  Cl-  Li6h  1  0.11620000  0.56000000  0.06000000  1.0
  Cl-  Li6h  1  0.11620000  0.56000000  0.56000000  1.0
  Cl-  Li6h  1  0.61620000  0.56000000  0.06000000  1.0
  Cl-  Li6h  1  0.61620000  0.56000000  0.56000000  1.0
  Cl-  Li6h  1  0.38380000  0.44000000  0.44000000  1.0
  Cl-  Li6h  1  0.38380000  0.44000000  0.94000000  1.0
  Cl-  Li6h  1  0.88380000  0.44000000  0.44000000  1.0
  Cl-  Li6h  1  0.88380000  0.44000000  0.94000000  1.0
  Cl-  Li6h  1  0.11620000  0.56000000  0.22000000  1.0
  Cl-  Li6h  1  0.11620000  0.56000000  0.72000000  1.0
  Cl-  Li6h  1  0.61620000  0.56000000  0.22000000  1.0
  Cl-  Li6h  1  0.61620000  0.56000000  0.72000000  1.0
  Cl-  Li6h  1  0.38380000  0.44000000  0.28000000  1.0
  Cl-  Li6h  1  0.38380000  0.44000000  0.78000000  1.0
  Cl-  Li6h  1  0.88380000  0.44000000  0.28000000  1.0
  Cl-  Li6h  1  0.88380000  0.44000000  0.78000000  1.0
  Cl-  Li6h  1  0.11620000  0.88000000  0.22000000  1.0
  Cl-  Li6h  1  0.11620000  0.88000000  0.72000000  1.0
  Cl-  Li6h  1  0.61620000  0.88000000  0.22000000  1.0
  Cl-  Li6h  1  0.61620000  0.88000000  0.72000000  1.0
  Cl-  Li6h  1  0.38380000  0.12000000  0.28000000  1.0
  Cl-  Li6h  1  0.38380000  0.12000000  0.78000000  1.0
  Cl-  Li6h  1  0.88380000  0.12000000  0.28000000  1.0
  Cl-  Li6h  1  0.88380000  0.12000000  0.78000000  1.0
