# generated using pymatgen
data_Li13La6Hf3TaO24
_symmetry_space_group_name_H-M   'P 1'
_cell_length_a   22.40132324
_cell_length_b   11.20066162
_cell_length_c   11.20066162
_cell_angle_alpha   109.47122063
_cell_angle_beta   70.52877937
_cell_angle_gamma   70.52877937
_symmetry_Int_Tables_number   1
_chemical_formula_structural   Li13La6Hf3TaO24
_chemical_formula_sum   'Li52 La24 Hf12 Ta4 O96'
_cell_volume   2163.41151139
_cell_formula_units_Z   4
loop_
 _symmetry_equiv_pos_site_id
 _symmetry_equiv_pos_as_xyz
  1  'x, y, z'
loop_
 _atom_type_symbol
 _atom_type_oxidation_number
  Li+  1.0
  La3+  3.0
  Hf4+  4.0
  Ta5+  5.0
  O2-  -2.0
loop_
 _atom_site_type_symbol
 _atom_site_label
 _atom_site_symmetry_multiplicity
 _atom_site_fract_x
 _atom_site_fract_y
 _atom_site_fract_z
 _atom_site_occupancy
  Li+  Li0  1  0.10978026  0.70093517  0.45828879  1.0
  Li+  Li1  1  0.60948082  0.69915407  0.46183353  1.0
  Li+  Li2  1  0.28700000  0.41600000  0.96600000  1.0
  Li+  Li3  1  0.78700000  0.41600000  0.96600000  1.0
  Li+  Li4  1  0.15000000  0.21000000  0.03400000  1.0
  Li+  Li5  1  0.65386047  0.20998314  0.03519987  1.0
  Li+  Li6  1  0.29200000  0.71600000  0.67600000  1.0
  Li+  Li7  1  0.79200000  0.71600000  0.67600000  1.0
  Li+  Li8  1  0.46137895  0.01127539  0.05059589  1.0
  Li+  Li9  1  0.95800000  0.01000000  0.05000000  1.0
  Li+  Li10  1  0.21300000  0.58400000  0.53400000  1.0
  Li+  Li11  1  0.71300000  0.58400000  0.53400000  1.0
  Li+  Li12  1  0.10500000  0.21600000  0.55000000  1.0
  Li+  Li13  1  0.60500000  0.21600000  0.55000000  1.0
  Li+  Li14  1  0.14500000  0.20000000  0.53400000  1.0
  Li+  Li15  1  0.64500000  0.20000000  0.53400000  1.0
  Li+  Li16  1  0.04200000  0.92600000  0.46600000  1.0
  Li+  Li17  1  0.54200000  0.92600000  0.46600000  1.0
  Li+  Li18  1  0.10500000  0.57400000  0.24000000  1.0
  Li+  Li19  1  0.60500000  0.57400000  0.24000000  1.0
  Li+  Li20  1  0.39200000  0.91600000  0.17600000  1.0
  Li+  Li21  1  0.89200000  0.91600000  0.17600000  1.0
  Li+  Li22  1  0.03779530  0.21948915  0.16799806  1.0
  Li+  Li23  1  0.53367933  0.21860358  0.16619088  1.0
  Li+  Li24  1  0.34802484  0.50842671  0.83567021  1.0
  Li+  Li25  1  0.84963899  0.51104020  0.83209433  1.0
  Li+  Li26  1  0.35500000  0.80000000  0.96600000  1.0
  Li+  Li27  1  0.85500000  0.80000000  0.96600000  1.0
  Li+  Li28  1  0.39297595  0.42403805  0.25899166  1.0
  Li+  Li29  1  0.89500000  0.42600000  0.26000000  1.0
  Li+  Li30  1  0.28869957  0.70056323  0.74087573  1.0
  Li+  Li31  1  0.79200000  0.70000000  0.74000000  1.0
  Li+  Li32  1  0.49500000  0.21000000  0.67600000  1.0
  Li+  Li33  1  0.99500000  0.21000000  0.67600000  1.0
  Li+  Li34  1  0.10800000  0.08400000  0.32400000  1.0
  Li+  Li35  1  0.60800000  0.08400000  0.32400000  1.0
  Li+  Li36  1  0.46300000  0.78400000  0.33400000  1.0
  Li+  Li37  1  0.96300000  0.78400000  0.33400000  1.0
  Li+  Li38  1  0.37500000  0.87500000  0.37500000  1.0
  Li+  Li39  1  0.87500000  0.87500000  0.37500000  1.0
  Li+  Li40  1  0.12651251  0.62457959  0.62486935  1.0
  Li+  Li41  1  0.62500000  0.62500000  0.62500000  1.0
  Li+  Li42  1  0.18750000  0.37500000  0.00000000  1.0
  Li+  Li43  1  0.68642623  0.37327094  0.00433279  1.0
  Li+  Li44  1  0.43696411  0.25009892  0.12613338  1.0
  Li+  Li45  1  0.93750000  0.25000000  0.12500000  1.0
  Li+  Li46  1  0.31608586  0.62389939  0.50214409  1.0
  Li+  Li47  1  0.81250000  0.62500000  0.50000000  1.0
  Li+  Li48  1  0.43630537  0.87857367  0.00090922  1.0
  Li+  Li49  1  0.93750000  0.87500000  0.00000000  1.0
  Li+  Li50  1  0.18750000  0.25000000  0.62500000  1.0
  Li+  Li51  1  0.68750000  0.25000000  0.62500000  1.0
  La3+  La52  1  0.37500000  0.62500000  0.12500000  1.0
  La3+  La53  1  0.87823893  0.62707100  0.12503660  1.0
  La3+  La54  1  0.12374899  0.87245115  0.87951216  1.0
  La3+  La55  1  0.62500000  0.87500000  0.87500000  1.0
  La3+  La56  1  0.06250000  0.62500000  0.00000000  1.0
  La3+  La57  1  0.56250000  0.62500000  0.00000000  1.0
  La3+  La58  1  0.18750000  0.87500000  0.50000000  1.0
  La3+  La59  1  0.68750000  0.87500000  0.50000000  1.0
  La3+  La60  1  0.18538291  0.74854532  0.12561061  1.0
  La3+  La61  1  0.68750000  0.75000000  0.12500000  1.0
  La3+  La62  1  0.06250000  0.25000000  0.87500000  1.0
  La3+  La63  1  0.56250000  0.25000000  0.87500000  1.0
  La3+  La64  1  0.12500000  0.37500000  0.37500000  1.0
  La3+  La65  1  0.62500000  0.37500000  0.37500000  1.0
  La3+  La66  1  0.37500000  0.12500000  0.62500000  1.0
  La3+  La67  1  0.87500000  0.12500000  0.62500000  1.0
  La3+  La68  1  0.43617847  0.37355291  0.50100821  1.0
  La3+  La69  1  0.93750000  0.37500000  0.50000000  1.0
  La3+  La70  1  0.31176225  0.12562254  0.99814031  1.0
  La3+  La71  1  0.81156644  0.12423519  0.99912178  1.0
  La3+  La72  1  0.31250000  0.25000000  0.37500000  1.0
  La3+  La73  1  0.81250000  0.25000000  0.37500000  1.0
  La3+  La74  1  0.43750000  0.75000000  0.62500000  1.0
  La3+  La75  1  0.93750000  0.75000000  0.62500000  1.0
  Hf4+  Hf76  1  0.00000000  0.50000000  0.75000000  1.0
  Hf4+  Hf77  1  0.50000000  0.50000000  0.75000000  1.0
  Hf4+  Hf78  1  0.00000000  0.00000000  0.25000000  1.0
  Hf4+  Hf79  1  0.50000000  0.00000000  0.25000000  1.0
  Hf4+  Hf80  1  0.00000000  0.50000000  0.25000000  1.0
  Hf4+  Hf81  1  0.50000000  0.50000000  0.25000000  1.0
  Hf4+  Hf82  1  0.25311261  0.49799219  0.74267291  1.0
  Hf4+  Hf83  1  0.75000000  0.50000000  0.75000000  1.0
  Hf4+  Hf84  1  0.25000000  0.00000000  0.25000000  1.0
  Hf4+  Hf85  1  0.75000000  0.00000000  0.25000000  1.0
  Hf4+  Hf86  1  0.99866905  0.99834715  0.75057095  1.0
  Hf4+  Hf87  1  0.50000000  0.00000000  0.75000000  1.0
  Ta5+  Ta88  1  0.25000000  0.50000000  0.25000000  1.0
  Ta5+  Ta89  1  0.75000000  0.50000000  0.25000000  1.0
  Ta5+  Ta90  1  0.24851549  0.99795508  0.74644065  1.0
  Ta5+  Ta91  1  0.75000000  0.00000000  0.75000000  1.0
  O2-  O92  1  0.45217376  0.41226585  0.86439215  1.0
  O2-  O93  1  0.95180000  0.41400000  0.86680000  1.0
  O2-  O94  1  0.29820000  0.52040000  0.06760000  1.0
  O2-  O95  1  0.79820000  0.52040000  0.06760000  1.0
  O2-  O96  1  0.10140000  0.97960000  0.13320000  1.0
  O2-  O97  1  0.59955738  0.97813003  0.12942652  1.0
  O2-  O98  1  0.14860000  0.08600000  0.93240000  1.0
  O2-  O99  1  0.64860000  0.08600000  0.93240000  1.0
  O2-  O100  1  0.01020000  0.88320000  0.04720000  1.0
  O2-  O101  1  0.51020000  0.88320000  0.04720000  1.0
  O2-  O102  1  0.45700000  0.68240000  0.95280000  1.0
  O2-  O103  1  0.95846126  0.68510404  0.95276066  1.0
  O2-  O104  1  0.29300000  0.61680000  0.34640000  1.0
  O2-  O105  1  0.79213727  0.61856800  0.34717503  1.0
  O2-  O106  1  0.23980000  0.81760000  0.65360000  1.0
  O2-  O107  1  0.73908900  0.81906912  0.65833001  1.0
  O2-  O108  1  0.15880000  0.70280000  0.33600000  1.0
  O2-  O109  1  0.65880000  0.70280000  0.33600000  1.0
  O2-  O110  1  0.05840000  0.79720000  0.22960000  1.0
  O2-  O111  1  0.55840000  0.79720000  0.22960000  1.0
  O2-  O112  1  0.09120000  0.40360000  0.77040000  1.0
  O2-  O113  1  0.59120000  0.40360000  0.77040000  1.0
  O2-  O114  1  0.19160000  0.09640000  0.66400000  1.0
  O2-  O115  1  0.69160000  0.09640000  0.66400000  1.0
  O2-  O116  1  0.04820000  0.58600000  0.63320000  1.0
  O2-  O117  1  0.55164205  0.58405799  0.63467968  1.0
  O2-  O118  1  0.20519094  0.47731430  0.43124539  1.0
  O2-  O119  1  0.70180000  0.47960000  0.43240000  1.0
  O2-  O120  1  0.39860000  0.02040000  0.36680000  1.0
  O2-  O121  1  0.89860000  0.02040000  0.36680000  1.0
  O2-  O122  1  0.35140000  0.91400000  0.56760000  1.0
  O2-  O123  1  0.85158291  0.91316287  0.56754747  1.0
  O2-  O124  1  0.48980000  0.11680000  0.45280000  1.0
  O2-  O125  1  0.98980000  0.11680000  0.45280000  1.0
  O2-  O126  1  0.04300000  0.31760000  0.54720000  1.0
  O2-  O127  1  0.54300000  0.31760000  0.54720000  1.0
  O2-  O128  1  0.20700000  0.38320000  0.15360000  1.0
  O2-  O129  1  0.70759403  0.38502356  0.15071803  1.0
  O2-  O130  1  0.26020000  0.18240000  0.84640000  1.0
  O2-  O131  1  0.76020000  0.18240000  0.84640000  1.0
  O2-  O132  1  0.34022855  0.29455947  0.16312239  1.0
  O2-  O133  1  0.84120000  0.29720000  0.16400000  1.0
  O2-  O134  1  0.44160000  0.20280000  0.27040000  1.0
  O2-  O135  1  0.94160000  0.20280000  0.27040000  1.0
  O2-  O136  1  0.40880000  0.59640000  0.72960000  1.0
  O2-  O137  1  0.90880000  0.59640000  0.72960000  1.0
  O2-  O138  1  0.30941924  0.90381480  0.83507800  1.0
  O2-  O139  1  0.80840000  0.90360000  0.83600000  1.0
  O2-  O140  1  0.40848966  0.58185721  0.45310148  1.0
  O2-  O141  1  0.90880000  0.58600000  0.45280000  1.0
  O2-  O142  1  0.30840000  0.47960000  0.54720000  1.0
  O2-  O143  1  0.80840000  0.47960000  0.54720000  1.0
  O2-  O144  1  0.34085533  0.02023667  0.15826439  1.0
  O2-  O145  1  0.84023051  0.02221870  0.15414991  1.0
  O2-  O146  1  0.44160000  0.91400000  0.84640000  1.0
  O2-  O147  1  0.94160000  0.91400000  0.84640000  1.0
  O2-  O148  1  0.20180000  0.11680000  0.16400000  1.0
  O2-  O149  1  0.70180000  0.11680000  0.16400000  1.0
  O2-  O150  1  0.05142543  0.31691847  0.27022672  1.0
  O2-  O151  1  0.54820000  0.31760000  0.27040000  1.0
  O2-  O152  1  0.35140000  0.38320000  0.72960000  1.0
  O2-  O153  1  0.85140000  0.38320000  0.72960000  1.0
  O2-  O154  1  0.39896247  0.18201886  0.83502614  1.0
  O2-  O155  1  0.89860000  0.18240000  0.83600000  1.0
  O2-  O156  1  0.26020000  0.29720000  0.63320000  1.0
  O2-  O157  1  0.76020000  0.29720000  0.63320000  1.0
  O2-  O158  1  0.20700000  0.20280000  0.43240000  1.0
  O2-  O159  1  0.71119950  0.20275567  0.42933887  1.0
  O2-  O160  1  0.04300000  0.59640000  0.36680000  1.0
  O2-  O161  1  0.54300000  0.59640000  0.36680000  1.0
  O2-  O162  1  0.49331931  0.90315411  0.57175979  1.0
  O2-  O163  1  0.98980000  0.90360000  0.56760000  1.0
  O2-  O164  1  0.09120000  0.41400000  0.04720000  1.0
  O2-  O165  1  0.59120000  0.41400000  0.04720000  1.0
  O2-  O166  1  0.19374708  0.51836682  0.95104094  1.0
  O2-  O167  1  0.69160000  0.52040000  0.95280000  1.0
  O2-  O168  1  0.15880000  0.97960000  0.34640000  1.0
  O2-  O169  1  0.65776028  0.97312140  0.35052233  1.0
  O2-  O170  1  0.05840000  0.08600000  0.65360000  1.0
  O2-  O171  1  0.55840000  0.08600000  0.65360000  1.0
  O2-  O172  1  0.29820000  0.88320000  0.33600000  1.0
  O2-  O173  1  0.79820000  0.88320000  0.33600000  1.0
  O2-  O174  1  0.45180000  0.68240000  0.22960000  1.0
  O2-  O175  1  0.95488261  0.68595816  0.22858316  1.0
  O2-  O176  1  0.14860000  0.61680000  0.77040000  1.0
  O2-  O177  1  0.64681553  0.61314363  0.77446595  1.0
  O2-  O178  1  0.10140000  0.81760000  0.66400000  1.0
  O2-  O179  1  0.60140000  0.81760000  0.66400000  1.0
  O2-  O180  1  0.23980000  0.70280000  0.86680000  1.0
  O2-  O181  1  0.73862942  0.70489103  0.86652108  1.0
  O2-  O182  1  0.29300000  0.79720000  0.06760000  1.0
  O2-  O183  1  0.79300000  0.79720000  0.06760000  1.0
  O2-  O184  1  0.45700000  0.40360000  0.13320000  1.0
  O2-  O185  1  0.95700000  0.40360000  0.13320000  1.0
  O2-  O186  1  0.01020000  0.09640000  0.93240000  1.0
  O2-  O187  1  0.51020000  0.09640000  0.93240000  1.0
