# generated using pymatgen
data_Li13La6Hf3TaO24
_symmetry_space_group_name_H-M   'P 1'
_cell_length_a   11.12546230
_cell_length_b   22.25092461
_cell_length_c   11.12546230
_cell_angle_alpha   70.52877937
_cell_angle_beta   70.52877937
_cell_angle_gamma   109.47122063
_symmetry_Int_Tables_number   1
_chemical_formula_structural   Li13La6Hf3TaO24
_chemical_formula_sum   'Li52 La24 Hf12 Ta4 O96'
_cell_volume   2120.12908726
_cell_formula_units_Z   4
loop_
 _symmetry_equiv_pos_site_id
 _symmetry_equiv_pos_as_xyz
  1  'x, y, z'
loop_
 _atom_type_symbol
 _atom_type_oxidation_number
  Li+  1.0
  La3+  3.0
  Hf4+  4.0
  Ta5+  5.0
  O2-  -2.0
loop_
 _atom_site_type_symbol
 _atom_site_label
 _atom_site_symmetry_multiplicity
 _atom_site_fract_x
 _atom_site_fract_y
 _atom_site_fract_z
 _atom_site_occupancy
  Li+  Li0  1  0.71000000  0.55866667  0.30000000  1.0
  Li+  Li1  1  0.71000000  0.05866667  0.30000000  1.0
  Li+  Li2  1  0.21600000  0.37966667  0.58400000  1.0
  Li+  Li3  1  0.21600000  0.87966667  0.58400000  1.0
  Li+  Li4  1  0.28400000  0.51666667  0.79000000  1.0
  Li+  Li5  1  0.28400000  0.01666667  0.79000000  1.0
  Li+  Li6  1  0.92600000  0.37466667  0.28400000  1.0
  Li+  Li7  1  0.92600000  0.87466667  0.28400000  1.0
  Li+  Li8  1  0.30000000  0.20866667  0.99000000  1.0
  Li+  Li9  1  0.30000000  0.70866667  0.99000000  1.0
  Li+  Li10  1  0.78400000  0.45366667  0.41600000  1.0
  Li+  Li11  1  0.78400000  0.95366667  0.41600000  1.0
  Li+  Li12  1  0.80000000  0.56166667  0.78400000  1.0
  Li+  Li13  1  0.80000000  0.06166667  0.78400000  1.0
  Li+  Li14  1  0.78400000  0.52166667  0.80000000  1.0
  Li+  Li15  1  0.78400000  0.02166667  0.80000000  1.0
  Li+  Li16  1  0.71600000  0.62466667  0.07400000  1.0
  Li+  Li17  1  0.71600000  0.12466667  0.07400000  1.0
  Li+  Li18  1  0.49000000  0.56166667  0.42600000  1.0
  Li+  Li19  1  0.49000000  0.06166667  0.42600000  1.0
  Li+  Li20  1  0.42600000  0.27466667  0.08400000  1.0
  Li+  Li21  1  0.42600000  0.77466667  0.08400000  1.0
  Li+  Li22  1  0.41600000  0.62966667  0.78400000  1.0
  Li+  Li23  1  0.41600000  0.12966667  0.78400000  1.0
  Li+  Li24  1  0.08400000  0.31666667  0.49000000  1.0
  Li+  Li25  1  0.08400000  0.81666667  0.49000000  1.0
  Li+  Li26  1  0.21600000  0.31166667  0.20000000  1.0
  Li+  Li27  1  0.21600000  0.81166667  0.20000000  1.0
  Li+  Li28  1  0.51000000  0.27166667  0.57400000  1.0
  Li+  Li29  1  0.51000000  0.77166667  0.57400000  1.0
  Li+  Li30  1  0.99000000  0.37466667  0.30000000  1.0
  Li+  Li31  1  0.99000000  0.87466667  0.30000000  1.0
  Li+  Li32  1  0.92600000  0.17166667  0.79000000  1.0
  Li+  Li33  1  0.92600000  0.67166667  0.79000000  1.0
  Li+  Li34  1  0.57400000  0.55866667  0.91600000  1.0
  Li+  Li35  1  0.57400000  0.05866667  0.91600000  1.0
  Li+  Li36  1  0.58400000  0.20366667  0.21600000  1.0
  Li+  Li37  1  0.58400000  0.70366667  0.21600000  1.0
  Li+  Li38  1  0.62500000  0.29166667  0.12500000  1.0
  Li+  Li39  1  0.62500000  0.79166667  0.12500000  1.0
  Li+  Li40  1  0.87500000  0.54166667  0.37500000  1.0
  Li+  Li41  1  0.87500000  0.04166667  0.37500000  1.0
  Li+  Li42  1  0.25000000  0.47916667  0.62500000  1.0
  Li+  Li43  1  0.25000000  0.97916667  0.62500000  1.0
  Li+  Li44  1  0.37500000  0.22916667  0.75000000  1.0
  Li+  Li45  1  0.37500000  0.72916667  0.75000000  1.0
  Li+  Li46  1  0.75000000  0.35416667  0.37500000  1.0
  Li+  Li47  1  0.75000000  0.85416667  0.37500000  1.0
  Li+  Li48  1  0.25000000  0.22916667  0.12500000  1.0
  Li+  Li49  1  0.25000000  0.72916667  0.12500000  1.0
  Li+  Li50  1  0.87500000  0.47916667  0.75000000  1.0
  Li+  Li51  1  0.87500000  0.97916667  0.75000000  1.0
  La3+  La52  1  0.37500000  0.29166667  0.37500000  1.0
  La3+  La53  1  0.37500000  0.79166667  0.37500000  1.0
  La3+  La54  1  0.12500000  0.54166667  0.12500000  1.0
  La3+  La55  1  0.12500000  0.04166667  0.12500000  1.0
  La3+  La56  1  0.25000000  0.60416667  0.37500000  1.0
  La3+  La57  1  0.25000000  0.10416667  0.37500000  1.0
  La3+  La58  1  0.75000000  0.47916667  0.12500000  1.0
  La3+  La59  1  0.75000000  0.97916667  0.12500000  1.0
  La3+  La60  1  0.37500000  0.47916667  0.25000000  1.0
  La3+  La61  1  0.37500000  0.97916667  0.25000000  1.0
  La3+  La62  1  0.12500000  0.60416667  0.75000000  1.0
  La3+  La63  1  0.12500000  0.10416667  0.75000000  1.0
  La3+  La64  1  0.62500000  0.54166667  0.62500000  1.0
  La3+  La65  1  0.62500000  0.04166667  0.62500000  1.0
  La3+  La66  1  0.87500000  0.29166667  0.87500000  1.0
  La3+  La67  1  0.87500000  0.79166667  0.87500000  1.0
  La3+  La68  1  0.75000000  0.22916667  0.62500000  1.0
  La3+  La69  1  0.75000000  0.72916667  0.62500000  1.0
  La3+  La70  1  0.25000000  0.35416667  0.87500000  1.0
  La3+  La71  1  0.25000000  0.85416667  0.87500000  1.0
  La3+  La72  1  0.62500000  0.35416667  0.75000000  1.0
  La3+  La73  1  0.62500000  0.85416667  0.75000000  1.0
  La3+  La74  1  0.87500000  0.22916667  0.25000000  1.0
  La3+  La75  1  0.87500000  0.72916667  0.25000000  1.0
  Hf4+  Hf76  1  0.00000000  0.66666667  0.50000000  1.0
  Hf4+  Hf77  1  0.00000000  0.16666667  0.50000000  1.0
  Hf4+  Hf78  1  0.50000000  0.66666667  0.00000000  1.0
  Hf4+  Hf79  1  0.50000000  0.16666667  0.00000000  1.0
  Hf4+  Hf80  1  0.50000000  0.66666667  0.50000000  1.0
  Hf4+  Hf81  1  0.50000000  0.16666667  0.50000000  1.0
  Hf4+  Hf82  1  0.00000000  0.41666667  0.50000000  1.0
  Hf4+  Hf83  1  0.00000000  0.91666667  0.50000000  1.0
  Hf4+  Hf84  1  0.50000000  0.41666667  0.00000000  1.0
  Hf4+  Hf85  1  0.50000000  0.91666667  0.00000000  1.0
  Hf4+  Hf86  1  0.00000000  0.66666667  0.00000000  1.0
  Hf4+  Hf87  1  0.00000000  0.16666667  0.00000000  1.0
  Ta5+  Ta88  1  0.50000000  0.41666667  0.50000000  1.0
  Ta5+  Ta89  1  0.50000000  0.91666667  0.50000000  1.0
  Ta5+  Ta90  1  0.00000000  0.41666667  0.00000000  1.0
  Ta5+  Ta91  1  0.00000000  0.91666667  0.00000000  1.0
  O2-  O92  1  0.11680000  0.21486667  0.58600000  1.0
  O2-  O93  1  0.11680000  0.71486667  0.58600000  1.0
  O2-  O94  1  0.31760000  0.36846667  0.47960000  1.0
  O2-  O95  1  0.31760000  0.86846667  0.47960000  1.0
  O2-  O96  1  0.38320000  0.56526667  0.02040000  1.0
  O2-  O97  1  0.38320000  0.06526667  0.02040000  1.0
  O2-  O98  1  0.18240000  0.51806667  0.91400000  1.0
  O2-  O99  1  0.18240000  0.01806667  0.91400000  1.0
  O2-  O100  1  0.29720000  0.65646667  0.11680000  1.0
  O2-  O101  1  0.29720000  0.15646667  0.11680000  1.0
  O2-  O102  1  0.20280000  0.20966667  0.31760000  1.0
  O2-  O103  1  0.20280000  0.70966667  0.31760000  1.0
  O2-  O104  1  0.59640000  0.37366667  0.38320000  1.0
  O2-  O105  1  0.59640000  0.87366667  0.38320000  1.0
  O2-  O106  1  0.90360000  0.42686667  0.18240000  1.0
  O2-  O107  1  0.90360000  0.92686667  0.18240000  1.0
  O2-  O108  1  0.58600000  0.50786667  0.29720000  1.0
  O2-  O109  1  0.58600000  0.00786667  0.29720000  1.0
  O2-  O110  1  0.47960000  0.60826667  0.20280000  1.0
  O2-  O111  1  0.47960000  0.10826667  0.20280000  1.0
  O2-  O112  1  0.02040000  0.57546667  0.59640000  1.0
  O2-  O113  1  0.02040000  0.07546667  0.59640000  1.0
  O2-  O114  1  0.91400000  0.47506667  0.90360000  1.0
  O2-  O115  1  0.91400000  0.97506667  0.90360000  1.0
  O2-  O116  1  0.88320000  0.61846667  0.41400000  1.0
  O2-  O117  1  0.88320000  0.11846667  0.41400000  1.0
  O2-  O118  1  0.68240000  0.46486667  0.52040000  1.0
  O2-  O119  1  0.68240000  0.96486667  0.52040000  1.0
  O2-  O120  1  0.61680000  0.26806667  0.97960000  1.0
  O2-  O121  1  0.61680000  0.76806667  0.97960000  1.0
  O2-  O122  1  0.81760000  0.31526667  0.08600000  1.0
  O2-  O123  1  0.81760000  0.81526667  0.08600000  1.0
  O2-  O124  1  0.70280000  0.17686667  0.88320000  1.0
  O2-  O125  1  0.70280000  0.67686667  0.88320000  1.0
  O2-  O126  1  0.79720000  0.62366667  0.68240000  1.0
  O2-  O127  1  0.79720000  0.12366667  0.68240000  1.0
  O2-  O128  1  0.40360000  0.45966667  0.61680000  1.0
  O2-  O129  1  0.40360000  0.95966667  0.61680000  1.0
  O2-  O130  1  0.09640000  0.40646667  0.81760000  1.0
  O2-  O131  1  0.09640000  0.90646667  0.81760000  1.0
  O2-  O132  1  0.41400000  0.32546667  0.70280000  1.0
  O2-  O133  1  0.41400000  0.82546667  0.70280000  1.0
  O2-  O134  1  0.52040000  0.22506667  0.79720000  1.0
  O2-  O135  1  0.52040000  0.72506667  0.79720000  1.0
  O2-  O136  1  0.97960000  0.25786667  0.40360000  1.0
  O2-  O137  1  0.97960000  0.75786667  0.40360000  1.0
  O2-  O138  1  0.08600000  0.35826667  0.09640000  1.0
  O2-  O139  1  0.08600000  0.85826667  0.09640000  1.0
  O2-  O140  1  0.70280000  0.25786667  0.41400000  1.0
  O2-  O141  1  0.70280000  0.75786667  0.41400000  1.0
  O2-  O142  1  0.79720000  0.35826667  0.52040000  1.0
  O2-  O143  1  0.79720000  0.85826667  0.52040000  1.0
  O2-  O144  1  0.40360000  0.32546667  0.97960000  1.0
  O2-  O145  1  0.40360000  0.82546667  0.97960000  1.0
  O2-  O146  1  0.09640000  0.22506667  0.08600000  1.0
  O2-  O147  1  0.09640000  0.72506667  0.08600000  1.0
  O2-  O148  1  0.41400000  0.46486667  0.88320000  1.0
  O2-  O149  1  0.41400000  0.96486667  0.88320000  1.0
  O2-  O150  1  0.52040000  0.61846667  0.68240000  1.0
  O2-  O151  1  0.52040000  0.11846667  0.68240000  1.0
  O2-  O152  1  0.97960000  0.31526667  0.61680000  1.0
  O2-  O153  1  0.97960000  0.81526667  0.61680000  1.0
  O2-  O154  1  0.08600000  0.26806667  0.81760000  1.0
  O2-  O155  1  0.08600000  0.76806667  0.81760000  1.0
  O2-  O156  1  0.88320000  0.40646667  0.70280000  1.0
  O2-  O157  1  0.88320000  0.90646667  0.70280000  1.0
  O2-  O158  1  0.68240000  0.45966667  0.79720000  1.0
  O2-  O159  1  0.68240000  0.95966667  0.79720000  1.0
  O2-  O160  1  0.61680000  0.62366667  0.40360000  1.0
  O2-  O161  1  0.61680000  0.12366667  0.40360000  1.0
  O2-  O162  1  0.81760000  0.17686667  0.09640000  1.0
  O2-  O163  1  0.81760000  0.67686667  0.09640000  1.0
  O2-  O164  1  0.29720000  0.57546667  0.58600000  1.0
  O2-  O165  1  0.29720000  0.07546667  0.58600000  1.0
  O2-  O166  1  0.20280000  0.47506667  0.47960000  1.0
  O2-  O167  1  0.20280000  0.97506667  0.47960000  1.0
  O2-  O168  1  0.59640000  0.50786667  0.02040000  1.0
  O2-  O169  1  0.59640000  0.00786667  0.02040000  1.0
  O2-  O170  1  0.90360000  0.60826667  0.91400000  1.0
  O2-  O171  1  0.90360000  0.10826667  0.91400000  1.0
  O2-  O172  1  0.58600000  0.36846667  0.11680000  1.0
  O2-  O173  1  0.58600000  0.86846667  0.11680000  1.0
  O2-  O174  1  0.47960000  0.21486667  0.31760000  1.0
  O2-  O175  1  0.47960000  0.71486667  0.31760000  1.0
  O2-  O176  1  0.02040000  0.51806667  0.38320000  1.0
  O2-  O177  1  0.02040000  0.01806667  0.38320000  1.0
  O2-  O178  1  0.91400000  0.56526667  0.18240000  1.0
  O2-  O179  1  0.91400000  0.06526667  0.18240000  1.0
  O2-  O180  1  0.11680000  0.42686667  0.29720000  1.0
  O2-  O181  1  0.11680000  0.92686667  0.29720000  1.0
  O2-  O182  1  0.31760000  0.37366667  0.20280000  1.0
  O2-  O183  1  0.31760000  0.87366667  0.20280000  1.0
  O2-  O184  1  0.38320000  0.20966667  0.59640000  1.0
  O2-  O185  1  0.38320000  0.70966667  0.59640000  1.0
  O2-  O186  1  0.18240000  0.65646667  0.90360000  1.0
  O2-  O187  1  0.18240000  0.15646667  0.90360000  1.0
