# generated using pymatgen
data_Li13La6Hf3TaO24
_symmetry_space_group_name_H-M   'P 1'
_cell_length_a   22.40132324
_cell_length_b   11.20066162
_cell_length_c   11.20066162
_cell_angle_alpha   109.47122063
_cell_angle_beta   109.47122063
_cell_angle_gamma   109.47122063
_symmetry_Int_Tables_number   1
_chemical_formula_structural   Li13La6Hf3TaO24
_chemical_formula_sum   'Li52 La24 Hf12 Ta4 O96'
_cell_volume   2163.41151139
_cell_formula_units_Z   4
loop_
 _symmetry_equiv_pos_site_id
 _symmetry_equiv_pos_as_xyz
  1  'x, y, z'
loop_
 _atom_type_symbol
 _atom_type_oxidation_number
  Li+  1.0
  La3+  3.0
  Hf4+  4.0
  Ta5+  5.0
  O2-  -2.0
loop_
 _atom_site_type_symbol
 _atom_site_label
 _atom_site_symmetry_multiplicity
 _atom_site_fract_x
 _atom_site_fract_y
 _atom_site_fract_z
 _atom_site_occupancy
  Li+  Li0  1  0.10800000  0.29000000  0.30000000  1.0
  Li+  Li0  1  0.60800000  0.29000000  0.30000000  1.0
  Li+  Li1  1  0.28700000  0.78400000  0.58400000  1.0
  Li+  Li1  1  0.78700000  0.78400000  0.58400000  1.0
  Li+  Li2  1  0.15000000  0.71600000  0.79000000  1.0
  Li+  Li2  1  0.65000000  0.71600000  0.79000000  1.0
  Li+  Li3  1  0.29200000  0.07400000  0.28400000  1.0
  Li+  Li3  1  0.79200000  0.07400000  0.28400000  1.0
  Li+  Li4  1  0.45800000  0.70000000  0.99000000  1.0
  Li+  Li4  1  0.95800000  0.70000000  0.99000000  1.0
  Li+  Li5  1  0.21300000  0.21600000  0.41600000  1.0
  Li+  Li5  1  0.71300000  0.21600000  0.41600000  1.0
  Li+  Li6  1  0.10500000  0.20000000  0.78400000  1.0
  Li+  Li6  1  0.60500000  0.20000000  0.78400000  1.0
  Li+  Li7  1  0.14500000  0.21600000  0.80000000  1.0
  Li+  Li7  1  0.64500000  0.21600000  0.80000000  1.0
  Li+  Li8  1  0.04200000  0.28400000  0.07400000  1.0
  Li+  Li8  1  0.54200000  0.28400000  0.07400000  1.0
  Li+  Li9  1  0.10500000  0.51000000  0.42600000  1.0
  Li+  Li9  1  0.60500000  0.51000000  0.42600000  1.0
  Li+  Li10  1  0.39200000  0.57400000  0.08400000  1.0
  Li+  Li10  1  0.89200000  0.57400000  0.08400000  1.0
  Li+  Li11  1  0.03700000  0.58400000  0.78400000  1.0
  Li+  Li11  1  0.53700000  0.58400000  0.78400000  1.0
  Li+  Li12  1  0.35000000  0.91600000  0.49000000  1.0
  Li+  Li12  1  0.85000000  0.91600000  0.49000000  1.0
  Li+  Li13  1  0.35500000  0.78400000  0.20000000  1.0
  Li+  Li13  1  0.85500000  0.78400000  0.20000000  1.0
  Li+  Li14  1  0.39500000  0.49000000  0.57400000  1.0
  Li+  Li14  1  0.89500000  0.49000000  0.57400000  1.0
  Li+  Li15  1  0.29200000  0.01000000  0.30000000  1.0
  Li+  Li15  1  0.79200000  0.01000000  0.30000000  1.0
  Li+  Li16  1  0.49500000  0.07400000  0.79000000  1.0
  Li+  Li16  1  0.99500000  0.07400000  0.79000000  1.0
  Li+  Li17  1  0.10800000  0.42600000  0.91600000  1.0
  Li+  Li17  1  0.60800000  0.42600000  0.91600000  1.0
  Li+  Li18  1  0.46300000  0.41600000  0.21600000  1.0
  Li+  Li18  1  0.96300000  0.41600000  0.21600000  1.0
  Li+  Li19  1  0.37500000  0.37500000  0.12500000  1.0
  Li+  Li19  1  0.87500000  0.37500000  0.12500000  1.0
  Li+  Li20  1  0.12500000  0.12500000  0.37500000  1.0
  Li+  Li20  1  0.62500000  0.12500000  0.37500000  1.0
  Li+  Li21  1  0.18750000  0.75000000  0.62500000  1.0
  Li+  Li21  1  0.68750000  0.75000000  0.62500000  1.0
  Li+  Li22  1  0.43750000  0.62500000  0.75000000  1.0
  Li+  Li22  1  0.93750000  0.62500000  0.75000000  1.0
  Li+  Li23  1  0.31250000  0.25000000  0.37500000  1.0
  Li+  Li23  1  0.81250000  0.25000000  0.37500000  1.0
  Li+  Li24  1  0.43750000  0.75000000  0.12500000  1.0
  Li+  Li24  1  0.93750000  0.75000000  0.12500000  1.0
  Li+  Li25  1  0.18750000  0.12500000  0.75000000  1.0
  Li+  Li25  1  0.68750000  0.12500000  0.75000000  1.0
  La3+  La1  1  0.37500000  0.62500000  0.37500000  1.0
  La3+  La1  1  0.87500000  0.62500000  0.37500000  1.0
  La3+  La1  1  0.12500000  0.87500000  0.12500000  1.0
  La3+  La1  1  0.62500000  0.87500000  0.12500000  1.0
  La3+  La1  1  0.06250000  0.75000000  0.37500000  1.0
  La3+  La1  1  0.56250000  0.75000000  0.37500000  1.0
  La3+  La1  1  0.18750000  0.25000000  0.12500000  1.0
  La3+  La1  1  0.68750000  0.25000000  0.12500000  1.0
  La3+  La1  1  0.18750000  0.62500000  0.25000000  1.0
  La3+  La1  1  0.68750000  0.62500000  0.25000000  1.0
  La3+  La1  1  0.06250000  0.87500000  0.75000000  1.0
  La3+  La1  1  0.56250000  0.87500000  0.75000000  1.0
  La3+  La1  1  0.12500000  0.37500000  0.62500000  1.0
  La3+  La1  1  0.62500000  0.37500000  0.62500000  1.0
  La3+  La1  1  0.37500000  0.12500000  0.87500000  1.0
  La3+  La1  1  0.87500000  0.12500000  0.87500000  1.0
  La3+  La1  1  0.43750000  0.25000000  0.62500000  1.0
  La3+  La1  1  0.93750000  0.25000000  0.62500000  1.0
  La3+  La1  1  0.31250000  0.75000000  0.87500000  1.0
  La3+  La1  1  0.81250000  0.75000000  0.87500000  1.0
  La3+  La1  1  0.31250000  0.37500000  0.75000000  1.0
  La3+  La1  1  0.81250000  0.37500000  0.75000000  1.0
  La3+  La1  1  0.43750000  0.12500000  0.25000000  1.0
  La3+  La1  1  0.93750000  0.12500000  0.25000000  1.0
  Hf4+  Hf38  1  0.00000000  0.00000000  0.50000000  1.0
  Hf4+  Hf38  1  0.50000000  0.00000000  0.50000000  1.0
  Hf4+  Hf39  1  0.00000000  0.50000000  0.00000000  1.0
  Hf4+  Hf39  1  0.50000000  0.50000000  0.00000000  1.0
  Hf4+  Hf40  1  0.00000000  0.50000000  0.50000000  1.0
  Hf4+  Hf40  1  0.50000000  0.50000000  0.50000000  1.0
  Hf4+  Hf41  1  0.25000000  0.00000000  0.50000000  1.0
  Hf4+  Hf41  1  0.75000000  0.00000000  0.50000000  1.0
  Hf4+  Hf42  1  0.25000000  0.50000000  0.00000000  1.0
  Hf4+  Hf42  1  0.75000000  0.50000000  0.00000000  1.0
  Hf4+  Hf43  1  0.00000000  0.00000000  0.00000000  1.0
  Hf4+  Hf43  1  0.50000000  0.00000000  0.00000000  1.0
  Ta5+  Ta44  1  0.25000000  0.50000000  0.50000000  1.0
  Ta5+  Ta44  1  0.75000000  0.50000000  0.50000000  1.0
  Ta5+  Ta45  1  0.25000000  0.00000000  0.00000000  1.0
  Ta5+  Ta45  1  0.75000000  0.00000000  1.00000000  1.0
  O2-  O1  1  0.45180000  0.88320000  0.58600000  1.0
  O2-  O1  1  0.95180000  0.88320000  0.58600000  1.0
  O2-  O1  1  0.29820000  0.68240000  0.47960000  1.0
  O2-  O1  1  0.79820000  0.68240000  0.47960000  1.0
  O2-  O1  1  0.10140000  0.61680000  0.02040000  1.0
  O2-  O1  1  0.60140000  0.61680000  0.02040000  1.0
  O2-  O1  1  0.14860000  0.81760000  0.91400000  1.0
  O2-  O1  1  0.64860000  0.81760000  0.91400000  1.0
  O2-  O1  1  0.01020000  0.70280000  0.11680000  1.0
  O2-  O1  1  0.51020000  0.70280000  0.11680000  1.0
  O2-  O1  1  0.45700000  0.79720000  0.31760000  1.0
  O2-  O1  1  0.95700000  0.79720000  0.31760000  1.0
  O2-  O1  1  0.29300000  0.40360000  0.38320000  1.0
  O2-  O1  1  0.79300000  0.40360000  0.38320000  1.0
  O2-  O1  1  0.23980000  0.09640000  0.18240000  1.0
  O2-  O1  1  0.73980000  0.09640000  0.18240000  1.0
  O2-  O1  1  0.15880000  0.41400000  0.29720000  1.0
  O2-  O1  1  0.65880000  0.41400000  0.29720000  1.0
  O2-  O1  1  0.05840000  0.52040000  0.20280000  1.0
  O2-  O1  1  0.55840000  0.52040000  0.20280000  1.0
  O2-  O1  1  0.09120000  0.97960000  0.59640000  1.0
  O2-  O1  1  0.59120000  0.97960000  0.59640000  1.0
  O2-  O1  1  0.19160000  0.08600000  0.90360000  1.0
  O2-  O1  1  0.69160000  0.08600000  0.90360000  1.0
  O2-  O1  1  0.04820000  0.11680000  0.41400000  1.0
  O2-  O1  1  0.54820000  0.11680000  0.41400000  1.0
  O2-  O1  1  0.20180000  0.31760000  0.52040000  1.0
  O2-  O1  1  0.70180000  0.31760000  0.52040000  1.0
  O2-  O1  1  0.39860000  0.38320000  0.97960000  1.0
  O2-  O1  1  0.89860000  0.38320000  0.97960000  1.0
  O2-  O1  1  0.35140000  0.18240000  0.08600000  1.0
  O2-  O1  1  0.85140000  0.18240000  0.08600000  1.0
  O2-  O1  1  0.48980000  0.29720000  0.88320000  1.0
  O2-  O1  1  0.98980000  0.29720000  0.88320000  1.0
  O2-  O1  1  0.04300000  0.20280000  0.68240000  1.0
  O2-  O1  1  0.54300000  0.20280000  0.68240000  1.0
  O2-  O1  1  0.20700000  0.59640000  0.61680000  1.0
  O2-  O1  1  0.70700000  0.59640000  0.61680000  1.0
  O2-  O1  1  0.26020000  0.90360000  0.81760000  1.0
  O2-  O1  1  0.76020000  0.90360000  0.81760000  1.0
  O2-  O1  1  0.34120000  0.58600000  0.70280000  1.0
  O2-  O1  1  0.84120000  0.58600000  0.70280000  1.0
  O2-  O1  1  0.44160000  0.47960000  0.79720000  1.0
  O2-  O1  1  0.94160000  0.47960000  0.79720000  1.0
  O2-  O1  1  0.40880000  0.02040000  0.40360000  1.0
  O2-  O1  1  0.90880000  0.02040000  0.40360000  1.0
  O2-  O1  1  0.30840000  0.91400000  0.09640000  1.0
  O2-  O1  1  0.80840000  0.91400000  0.09640000  1.0
  O2-  O1  1  0.40880000  0.29720000  0.41400000  1.0
  O2-  O1  1  0.90880000  0.29720000  0.41400000  1.0
  O2-  O1  1  0.30840000  0.20280000  0.52040000  1.0
  O2-  O1  1  0.80840000  0.20280000  0.52040000  1.0
  O2-  O1  1  0.34120000  0.59640000  0.97960000  1.0
  O2-  O1  1  0.84120000  0.59640000  0.97960000  1.0
  O2-  O1  1  0.44160000  0.90360000  0.08600000  1.0
  O2-  O1  1  0.94160000  0.90360000  0.08600000  1.0
  O2-  O1  1  0.20180000  0.58600000  0.88320000  1.0
  O2-  O1  1  0.70180000  0.58600000  0.88320000  1.0
  O2-  O1  1  0.04820000  0.47960000  0.68240000  1.0
  O2-  O1  1  0.54820000  0.47960000  0.68240000  1.0
  O2-  O1  1  0.35140000  0.02040000  0.61680000  1.0
  O2-  O1  1  0.85140000  0.02040000  0.61680000  1.0
  O2-  O1  1  0.39860000  0.91400000  0.81760000  1.0
  O2-  O1  1  0.89860000  0.91400000  0.81760000  1.0
  O2-  O1  1  0.26020000  0.11680000  0.70280000  1.0
  O2-  O1  1  0.76020000  0.11680000  0.70280000  1.0
  O2-  O1  1  0.20700000  0.31760000  0.79720000  1.0
  O2-  O1  1  0.70700000  0.31760000  0.79720000  1.0
  O2-  O1  1  0.04300000  0.38320000  0.40360000  1.0
  O2-  O1  1  0.54300000  0.38320000  0.40360000  1.0
  O2-  O1  1  0.48980000  0.18240000  0.09640000  1.0
  O2-  O1  1  0.98980000  0.18240000  0.09640000  1.0
  O2-  O1  1  0.09120000  0.70280000  0.58600000  1.0
  O2-  O1  1  0.59120000  0.70280000  0.58600000  1.0
  O2-  O1  1  0.19160000  0.79720000  0.47960000  1.0
  O2-  O1  1  0.69160000  0.79720000  0.47960000  1.0
  O2-  O1  1  0.15880000  0.40360000  0.02040000  1.0
  O2-  O1  1  0.65880000  0.40360000  0.02040000  1.0
  O2-  O1  1  0.05840000  0.09640000  0.91400000  1.0
  O2-  O1  1  0.55840000  0.09640000  0.91400000  1.0
  O2-  O1  1  0.29820000  0.41400000  0.11680000  1.0
  O2-  O1  1  0.79820000  0.41400000  0.11680000  1.0
  O2-  O1  1  0.45180000  0.52040000  0.31760000  1.0
  O2-  O1  1  0.95180000  0.52040000  0.31760000  1.0
  O2-  O1  1  0.14860000  0.97960000  0.38320000  1.0
  O2-  O1  1  0.64860000  0.97960000  0.38320000  1.0
  O2-  O1  1  0.10140000  0.08600000  0.18240000  1.0
  O2-  O1  1  0.60140000  0.08600000  0.18240000  1.0
  O2-  O1  1  0.23980000  0.88320000  0.29720000  1.0
  O2-  O1  1  0.73980000  0.88320000  0.29720000  1.0
  O2-  O1  1  0.29300000  0.68240000  0.20280000  1.0
  O2-  O1  1  0.79300000  0.68240000  0.20280000  1.0
  O2-  O1  1  0.45700000  0.61680000  0.59640000  1.0
  O2-  O1  1  0.95700000  0.61680000  0.59640000  1.0
  O2-  O1  1  0.01020000  0.81760000  0.90360000  1.0
  O2-  O1  1  0.51020000  0.81760000  0.90360000  1.0
