# generated using pymatgen
data_LiMgSO4F
_symmetry_space_group_name_H-M   'P 1'
_cell_length_a   10.32460000
_cell_length_b   10.77600000
_cell_length_c   21.21900000
_cell_angle_alpha   106.68000000
_cell_angle_beta   107.40000000
_cell_angle_gamma   97.50000000
_symmetry_Int_Tables_number   1
_chemical_formula_structural   LiMgSO4F
_chemical_formula_sum   'Li24 Mg24 S24 O96 F24'
_cell_volume   2096.64311495
_cell_formula_units_Z   24
loop_
 _symmetry_equiv_pos_site_id
 _symmetry_equiv_pos_as_xyz
  1  'x, y, z'
loop_
 _atom_type_symbol
 _atom_type_oxidation_number
  Li+  1.0
  Mg2+  2.0
  S2-  -2.0
  O2-  -2.0
  F-  -1.0
loop_
 _atom_site_type_symbol
 _atom_site_label
 _atom_site_symmetry_multiplicity
 _atom_site_fract_x
 _atom_site_fract_y
 _atom_site_fract_z
 _atom_site_occupancy
  Li+  Li0  1  0.36250000  0.17850000  0.07033333  1.0
  Li+  Li0  1  0.36250000  0.17850000  0.40366667  1.0
  Li+  Li0  1  0.36250000  0.17850000  0.73700000  1.0
  Li+  Li1  1  0.36250000  0.67850000  0.07033333  1.0
  Li+  Li1  1  0.36250000  0.67850000  0.40366667  1.0
  Li+  Li1  1  0.36250000  0.67850000  0.73700000  1.0
  Li+  Li2  1  0.13750000  0.82150000  0.26300000  1.0
  Li+  Li2  1  0.13750000  0.82150000  0.59633333  1.0
  Li+  Li2  1  0.13750000  0.82150000  0.92966667  1.0
  Li+  Li3  1  0.63750000  0.32150000  0.26300000  1.0
  Li+  Li3  1  0.63750000  0.32150000  0.59633333  1.0
  Li+  Li3  1  0.63750000  0.32150000  0.92966667  1.0
  Li+  Li4  1  0.63750000  0.82150000  0.26300000  1.0
  Li+  Li4  1  0.63750000  0.82150000  0.59633333  1.0
  Li+  Li4  1  0.63750000  0.82150000  0.92966667  1.0
  Li+  Li5  1  0.87350000  0.18850000  0.09533333  1.0
  Li+  Li5  1  0.87350000  0.18850000  0.42866667  1.0
  Li+  Li5  1  0.87350000  0.18850000  0.76200000  1.0
  Li+  Li6  1  0.87350000  0.68850000  0.09533333  1.0
  Li+  Li6  1  0.87350000  0.68850000  0.42866667  1.0
  Li+  Li6  1  0.87350000  0.68850000  0.76200000  1.0
  Li+  Li7  1  0.12650000  0.31150000  0.23800000  1.0
  Li+  Li7  1  0.12650000  0.31150000  0.57133333  1.0
  Li+  Li7  1  0.12650000  0.31150000  0.90466667  1.0
  Mg2+  Mg1  1  0.00000000  0.00000000  0.16666667  1.0
  Mg2+  Mg1  1  0.00000000  0.00000000  0.50000000  1.0
  Mg2+  Mg1  1  0.00000000  0.00000000  0.83333333  1.0
  Mg2+  Mg1  1  0.00000000  0.50000000  0.16666667  1.0
  Mg2+  Mg1  1  0.00000000  0.50000000  0.50000000  1.0
  Mg2+  Mg1  1  0.00000000  0.50000000  0.83333333  1.0
  Mg2+  Mg1  1  0.50000000  0.00000000  0.16666667  1.0
  Mg2+  Mg1  1  0.50000000  0.00000000  0.50000000  1.0
  Mg2+  Mg1  1  0.50000000  0.00000000  0.83333333  1.0
  Mg2+  Mg1  1  0.50000000  0.50000000  0.16666667  1.0
  Mg2+  Mg1  1  0.50000000  0.50000000  0.50000000  1.0
  Mg2+  Mg1  1  0.50000000  0.50000000  0.83333333  1.0
  Mg2+  Mg2  1  0.00000000  0.00000000  0.00000000  1.0
  Mg2+  Mg2  1  0.00000000  0.00000000  0.33333333  1.0
  Mg2+  Mg2  1  0.00000000  0.00000000  0.66666667  1.0
  Mg2+  Mg2  1  0.00000000  0.50000000  0.00000000  1.0
  Mg2+  Mg2  1  0.00000000  0.50000000  0.33333333  1.0
  Mg2+  Mg2  1  0.00000000  0.50000000  0.66666667  1.0
  Mg2+  Mg2  1  0.50000000  0.00000000  0.00000000  1.0
  Mg2+  Mg2  1  0.50000000  0.00000000  0.33333333  1.0
  Mg2+  Mg2  1  0.50000000  0.00000000  0.66666667  1.0
  Mg2+  Mg2  1  0.50000000  0.50000000  0.00000000  1.0
  Mg2+  Mg2  1  0.50000000  0.50000000  0.33333333  1.0
  Mg2+  Mg2  1  0.50000000  0.50000000  0.66666667  1.0
  S2-  S1  1  0.33420000  0.18235000  0.24950000  1.0
  S2-  S1  1  0.33420000  0.18235000  0.58283333  1.0
  S2-  S1  1  0.33420000  0.18235000  0.91616667  1.0
  S2-  S1  1  0.33420000  0.68235000  0.24950000  1.0
  S2-  S1  1  0.33420000  0.68235000  0.58283333  1.0
  S2-  S1  1  0.33420000  0.68235000  0.91616667  1.0
  S2-  S1  1  0.83420000  0.18235000  0.24950000  1.0
  S2-  S1  1  0.83420000  0.18235000  0.58283333  1.0
  S2-  S1  1  0.83420000  0.18235000  0.91616667  1.0
  S2-  S1  1  0.83420000  0.68235000  0.24950000  1.0
  S2-  S1  1  0.83420000  0.68235000  0.58283333  1.0
  S2-  S1  1  0.83420000  0.68235000  0.91616667  1.0
  S2-  S1  1  0.16580000  0.31765000  0.08383333  1.0
  S2-  S1  1  0.16580000  0.31765000  0.41716667  1.0
  S2-  S1  1  0.16580000  0.31765000  0.75050000  1.0
  S2-  S1  1  0.16580000  0.81765000  0.08383333  1.0
  S2-  S1  1  0.16580000  0.81765000  0.41716667  1.0
  S2-  S1  1  0.16580000  0.81765000  0.75050000  1.0
  S2-  S1  1  0.66580000  0.31765000  0.08383333  1.0
  S2-  S1  1  0.66580000  0.31765000  0.41716667  1.0
  S2-  S1  1  0.66580000  0.31765000  0.75050000  1.0
  S2-  S1  1  0.66580000  0.81765000  0.08383333  1.0
  S2-  S1  1  0.66580000  0.81765000  0.41716667  1.0
  S2-  S1  1  0.66580000  0.81765000  0.75050000  1.0
  O2-  O1  1  0.19115000  0.12725000  0.19850000  1.0
  O2-  O1  1  0.19115000  0.12725000  0.53183333  1.0
  O2-  O1  1  0.19115000  0.12725000  0.86516667  1.0
  O2-  O1  1  0.19115000  0.62725000  0.19850000  1.0
  O2-  O1  1  0.19115000  0.62725000  0.53183333  1.0
  O2-  O1  1  0.19115000  0.62725000  0.86516667  1.0
  O2-  O1  1  0.69115000  0.12725000  0.19850000  1.0
  O2-  O1  1  0.69115000  0.12725000  0.53183333  1.0
  O2-  O1  1  0.69115000  0.12725000  0.86516667  1.0
  O2-  O1  1  0.69115000  0.62725000  0.19850000  1.0
  O2-  O1  1  0.69115000  0.62725000  0.53183333  1.0
  O2-  O1  1  0.69115000  0.62725000  0.86516667  1.0
  O2-  O1  1  0.30885000  0.37275000  0.13483333  1.0
  O2-  O1  1  0.30885000  0.37275000  0.46816667  1.0
  O2-  O1  1  0.30885000  0.37275000  0.80150000  1.0
  O2-  O1  1  0.30885000  0.87275000  0.13483333  1.0
  O2-  O1  1  0.30885000  0.87275000  0.46816667  1.0
  O2-  O1  1  0.30885000  0.87275000  0.80150000  1.0
  O2-  O1  1  0.80885000  0.37275000  0.13483333  1.0
  O2-  O1  1  0.80885000  0.37275000  0.46816667  1.0
  O2-  O1  1  0.80885000  0.37275000  0.80150000  1.0
  O2-  O1  1  0.80885000  0.87275000  0.13483333  1.0
  O2-  O1  1  0.80885000  0.87275000  0.46816667  1.0
  O2-  O1  1  0.80885000  0.87275000  0.80150000  1.0
  O2-  O2  1  0.43685000  0.17195000  0.21326667  1.0
  O2-  O2  1  0.43685000  0.17195000  0.54660000  1.0
  O2-  O2  1  0.43685000  0.17195000  0.87993333  1.0
  O2-  O2  1  0.43685000  0.67195000  0.21326667  1.0
  O2-  O2  1  0.43685000  0.67195000  0.54660000  1.0
  O2-  O2  1  0.43685000  0.67195000  0.87993333  1.0
  O2-  O2  1  0.93685000  0.17195000  0.21326667  1.0
  O2-  O2  1  0.93685000  0.17195000  0.54660000  1.0
  O2-  O2  1  0.93685000  0.17195000  0.87993333  1.0
  O2-  O2  1  0.93685000  0.67195000  0.21326667  1.0
  O2-  O2  1  0.93685000  0.67195000  0.54660000  1.0
  O2-  O2  1  0.93685000  0.67195000  0.87993333  1.0
  O2-  O2  1  0.06315000  0.32805000  0.12006667  1.0
  O2-  O2  1  0.06315000  0.32805000  0.45340000  1.0
  O2-  O2  1  0.06315000  0.32805000  0.78673333  1.0
  O2-  O2  1  0.06315000  0.82805000  0.12006667  1.0
  O2-  O2  1  0.06315000  0.82805000  0.45340000  1.0
  O2-  O2  1  0.06315000  0.82805000  0.78673333  1.0
  O2-  O2  1  0.56315000  0.32805000  0.12006667  1.0
  O2-  O2  1  0.56315000  0.32805000  0.45340000  1.0
  O2-  O2  1  0.56315000  0.32805000  0.78673333  1.0
  O2-  O2  1  0.56315000  0.82805000  0.12006667  1.0
  O2-  O2  1  0.56315000  0.82805000  0.45340000  1.0
  O2-  O2  1  0.56315000  0.82805000  0.78673333  1.0
  O2-  O3  1  0.34115000  0.32375000  0.28503333  1.0
  O2-  O3  1  0.34115000  0.32375000  0.61836667  1.0
  O2-  O3  1  0.34115000  0.32375000  0.95170000  1.0
  O2-  O3  1  0.34115000  0.82375000  0.28503333  1.0
  O2-  O3  1  0.34115000  0.82375000  0.61836667  1.0
  O2-  O3  1  0.34115000  0.82375000  0.95170000  1.0
  O2-  O3  1  0.84115000  0.32375000  0.28503333  1.0
  O2-  O3  1  0.84115000  0.32375000  0.61836667  1.0
  O2-  O3  1  0.84115000  0.32375000  0.95170000  1.0
  O2-  O3  1  0.84115000  0.82375000  0.28503333  1.0
  O2-  O3  1  0.84115000  0.82375000  0.61836667  1.0
  O2-  O3  1  0.84115000  0.82375000  0.95170000  1.0
  O2-  O3  1  0.15885000  0.17625000  0.04830000  1.0
  O2-  O3  1  0.15885000  0.17625000  0.38163333  1.0
  O2-  O3  1  0.15885000  0.17625000  0.71496667  1.0
  O2-  O3  1  0.15885000  0.67625000  0.04830000  1.0
  O2-  O3  1  0.15885000  0.67625000  0.38163333  1.0
  O2-  O3  1  0.15885000  0.67625000  0.71496667  1.0
  O2-  O3  1  0.65885000  0.17625000  0.04830000  1.0
  O2-  O3  1  0.65885000  0.17625000  0.38163333  1.0
  O2-  O3  1  0.65885000  0.17625000  0.71496667  1.0
  O2-  O3  1  0.65885000  0.67625000  0.04830000  1.0
  O2-  O3  1  0.65885000  0.67625000  0.38163333  1.0
  O2-  O3  1  0.65885000  0.67625000  0.71496667  1.0
  O2-  O4  1  0.36435000  0.11395000  0.30090000  1.0
  O2-  O4  1  0.36435000  0.11395000  0.63423333  1.0
  O2-  O4  1  0.36435000  0.11395000  0.96756667  1.0
  O2-  O4  1  0.36435000  0.61395000  0.30090000  1.0
  O2-  O4  1  0.36435000  0.61395000  0.63423333  1.0
  O2-  O4  1  0.36435000  0.61395000  0.96756667  1.0
  O2-  O4  1  0.86435000  0.11395000  0.30090000  1.0
  O2-  O4  1  0.86435000  0.11395000  0.63423333  1.0
  O2-  O4  1  0.86435000  0.11395000  0.96756667  1.0
  O2-  O4  1  0.86435000  0.61395000  0.30090000  1.0
  O2-  O4  1  0.86435000  0.61395000  0.63423333  1.0
  O2-  O4  1  0.86435000  0.61395000  0.96756667  1.0
  O2-  O4  1  0.13565000  0.38605000  0.03243333  1.0
  O2-  O4  1  0.13565000  0.38605000  0.36576667  1.0
  O2-  O4  1  0.13565000  0.38605000  0.69910000  1.0
  O2-  O4  1  0.13565000  0.88605000  0.03243333  1.0
  O2-  O4  1  0.13565000  0.88605000  0.36576667  1.0
  O2-  O4  1  0.13565000  0.88605000  0.69910000  1.0
  O2-  O4  1  0.63565000  0.38605000  0.03243333  1.0
  O2-  O4  1  0.63565000  0.38605000  0.36576667  1.0
  O2-  O4  1  0.63565000  0.38605000  0.69910000  1.0
  O2-  O4  1  0.63565000  0.88605000  0.03243333  1.0
  O2-  O4  1  0.63565000  0.88605000  0.36576667  1.0
  O2-  O4  1  0.63565000  0.88605000  0.69910000  1.0
  F-  F1  1  0.44485000  0.04120000  0.08153333  1.0
  F-  F1  1  0.44485000  0.04120000  0.41486667  1.0
  F-  F1  1  0.44485000  0.04120000  0.74820000  1.0
  F-  F1  1  0.44485000  0.54120000  0.08153333  1.0
  F-  F1  1  0.44485000  0.54120000  0.41486667  1.0
  F-  F1  1  0.44485000  0.54120000  0.74820000  1.0
  F-  F1  1  0.94485000  0.04120000  0.08153333  1.0
  F-  F1  1  0.94485000  0.04120000  0.41486667  1.0
  F-  F1  1  0.94485000  0.04120000  0.74820000  1.0
  F-  F1  1  0.94485000  0.54120000  0.08153333  1.0
  F-  F1  1  0.94485000  0.54120000  0.41486667  1.0
  F-  F1  1  0.94485000  0.54120000  0.74820000  1.0
  F-  F1  1  0.05515000  0.45880000  0.25180000  1.0
  F-  F1  1  0.05515000  0.45880000  0.58513333  1.0
  F-  F1  1  0.05515000  0.45880000  0.91846667  1.0
  F-  F1  1  0.05515000  0.95880000  0.25180000  1.0
  F-  F1  1  0.05515000  0.95880000  0.58513333  1.0
  F-  F1  1  0.05515000  0.95880000  0.91846667  1.0
  F-  F1  1  0.55515000  0.45880000  0.25180000  1.0
  F-  F1  1  0.55515000  0.45880000  0.58513333  1.0
  F-  F1  1  0.55515000  0.45880000  0.91846667  1.0
  F-  F1  1  0.55515000  0.95880000  0.25180000  1.0
  F-  F1  1  0.55515000  0.95880000  0.58513333  1.0
  F-  F1  1  0.55515000  0.95880000  0.91846667  1.0
