# generated using pymatgen
data_Li7Nd11Ti20O60
_symmetry_space_group_name_H-M   'P 1'
_cell_length_a   10.79504000
_cell_length_b   27.18305000
_cell_length_c   7.66470000
_cell_angle_alpha   90.00000000
_cell_angle_beta   90.00000000
_cell_angle_gamma   90.00000000
_symmetry_Int_Tables_number   1
_chemical_formula_structural   Li7Nd11Ti20O60
_chemical_formula_sum   'Li14 Nd22 Ti40 O120'
_cell_volume   2249.14575640
_cell_formula_units_Z   2
loop_
 _symmetry_equiv_pos_site_id
 _symmetry_equiv_pos_as_xyz
  1  'x, y, z'
loop_
 _atom_type_symbol
 _atom_type_oxidation_number
  Li+  1.0
  Nd3+  3.0
  Ti4+  4.0
  O2-  -2.0
loop_
 _atom_site_type_symbol
 _atom_site_label
 _atom_site_symmetry_multiplicity
 _atom_site_fract_x
 _atom_site_fract_y
 _atom_site_fract_z
 _atom_site_occupancy
  Li+  Li0  1  0.01600000  0.97300000  0.25000000  1.0
  Li+  Li1  1  0.51600000  0.57300000  0.25000000  1.0
  Li+  Li2  1  0.51600000  0.77300000  0.25000000  1.0
  Li+  Li3  1  0.73400000  0.07300000  0.25000000  1.0
  Li+  Li4  1  0.73400000  0.27300000  0.25000000  1.0
  Li+  Li5  1  0.73400000  0.67300000  0.25000000  1.0
  Li+  Li6  1  0.48400000  0.22700000  0.75000000  1.0
  Li+  Li7  1  0.48400000  0.62700000  0.75000000  1.0
  Li+  Li8  1  0.98400000  0.62700000  0.75000000  1.0
  Li+  Li9  1  0.26600000  0.92700000  0.75000000  1.0
  Li+  Li10  1  0.76600000  0.32700000  0.75000000  1.0
  Li+  Li11  1  0.76600000  0.52700000  0.75000000  1.0
  Li+  Li12  1  0.76600000  0.72700000  0.75000000  1.0
  Li+  Li13  1  0.76600000  0.92700000  0.75000000  1.0
  Nd3+  Nd14  1  0.25425000  0.10492000  0.25000000  1.0
  Nd3+  Nd15  1  0.25425000  0.50492000  0.25000000  1.0
  Nd3+  Nd16  1  0.25425000  0.70492000  0.25000000  1.0
  Nd3+  Nd17  1  0.75425000  0.10492000  0.25000000  1.0
  Nd3+  Nd18  1  0.75425000  0.70492000  0.25000000  1.0
  Nd3+  Nd19  1  0.75425000  0.90492000  0.25000000  1.0
  Nd3+  Nd20  1  0.49575000  0.20492000  0.25000000  1.0
  Nd3+  Nd21  1  0.49575000  0.40492000  0.25000000  1.0
  Nd3+  Nd22  1  0.49575000  0.80492000  0.25000000  1.0
  Nd3+  Nd23  1  0.99575000  0.00492000  0.25000000  1.0
  Nd3+  Nd24  1  0.99575000  0.20492000  0.25000000  1.0
  Nd3+  Nd25  1  0.99575000  0.40492000  0.25000000  1.0
  Nd3+  Nd26  1  0.99575000  0.60492000  0.25000000  1.0
  Nd3+  Nd27  1  0.99575000  0.80492000  0.25000000  1.0
  Nd3+  Nd28  1  0.24575000  0.09508000  0.75000000  1.0
  Nd3+  Nd29  1  0.24575000  0.49508000  0.75000000  1.0
  Nd3+  Nd30  1  0.24575000  0.69508000  0.75000000  1.0
  Nd3+  Nd31  1  0.74575000  0.09508000  0.75000000  1.0
  Nd3+  Nd32  1  0.74575000  0.29508000  0.75000000  1.0
  Nd3+  Nd33  1  0.00425000  0.39508000  0.75000000  1.0
  Nd3+  Nd34  1  0.50425000  0.39508000  0.75000000  1.0
  Nd3+  Nd35  1  0.50425000  0.79508000  0.75000000  1.0
  Ti4+  Ti1  1  0.25000000  0.00000000  0.00000000  1.0
  Ti4+  Ti1  1  0.25000000  0.20000000  0.00000000  1.0
  Ti4+  Ti1  1  0.25000000  0.40000000  0.00000000  1.0
  Ti4+  Ti1  1  0.25000000  0.60000000  0.00000000  1.0
  Ti4+  Ti1  1  0.25000000  0.80000000  0.00000000  1.0
  Ti4+  Ti1  1  0.75000000  0.00000000  0.00000000  1.0
  Ti4+  Ti1  1  0.75000000  0.20000000  0.00000000  1.0
  Ti4+  Ti1  1  0.75000000  0.40000000  0.00000000  1.0
  Ti4+  Ti1  1  0.75000000  0.60000000  0.00000000  1.0
  Ti4+  Ti1  1  0.75000000  0.80000000  0.00000000  1.0
  Ti4+  Ti1  1  0.00000000  0.10000000  0.50000000  1.0
  Ti4+  Ti1  1  0.00000000  0.30000000  0.50000000  1.0
  Ti4+  Ti1  1  0.00000000  0.50000000  0.50000000  1.0
  Ti4+  Ti1  1  0.00000000  0.70000000  0.50000000  1.0
  Ti4+  Ti1  1  0.00000000  0.90000000  0.50000000  1.0
  Ti4+  Ti1  1  0.50000000  0.10000000  0.50000000  1.0
  Ti4+  Ti1  1  0.50000000  0.30000000  0.50000000  1.0
  Ti4+  Ti1  1  0.50000000  0.50000000  0.50000000  1.0
  Ti4+  Ti1  1  0.50000000  0.70000000  0.50000000  1.0
  Ti4+  Ti1  1  0.50000000  0.90000000  0.50000000  1.0
  Ti4+  Ti1  1  0.25000000  0.00000000  0.50000000  1.0
  Ti4+  Ti1  1  0.25000000  0.20000000  0.50000000  1.0
  Ti4+  Ti1  1  0.25000000  0.40000000  0.50000000  1.0
  Ti4+  Ti1  1  0.25000000  0.60000000  0.50000000  1.0
  Ti4+  Ti1  1  0.25000000  0.80000000  0.50000000  1.0
  Ti4+  Ti1  1  0.75000000  0.00000000  0.50000000  1.0
  Ti4+  Ti1  1  0.75000000  0.20000000  0.50000000  1.0
  Ti4+  Ti1  1  0.75000000  0.40000000  0.50000000  1.0
  Ti4+  Ti1  1  0.75000000  0.60000000  0.50000000  1.0
  Ti4+  Ti1  1  0.75000000  0.80000000  0.50000000  1.0
  Ti4+  Ti1  1  0.50000000  0.10000000  0.00000000  1.0
  Ti4+  Ti1  1  0.50000000  0.30000000  0.00000000  1.0
  Ti4+  Ti1  1  0.50000000  0.50000000  0.00000000  1.0
  Ti4+  Ti1  1  0.50000000  0.70000000  0.00000000  1.0
  Ti4+  Ti1  1  0.50000000  0.90000000  0.00000000  1.0
  Ti4+  Ti1  1  0.00000000  0.10000000  0.00000000  1.0
  Ti4+  Ti1  1  0.00000000  0.30000000  0.00000000  1.0
  Ti4+  Ti1  1  0.00000000  0.50000000  0.00000000  1.0
  Ti4+  Ti1  1  0.00000000  0.70000000  0.00000000  1.0
  Ti4+  Ti1  1  0.00000000  0.90000000  0.00000000  1.0
  O2-  O1  1  0.21495000  0.19872000  0.25000000  1.0
  O2-  O1  1  0.21495000  0.39872000  0.25000000  1.0
  O2-  O1  1  0.21495000  0.59872000  0.25000000  1.0
  O2-  O1  1  0.21495000  0.79872000  0.25000000  1.0
  O2-  O1  1  0.21495000  0.99872000  0.25000000  1.0
  O2-  O1  1  0.71495000  0.19872000  0.25000000  1.0
  O2-  O1  1  0.71495000  0.39872000  0.25000000  1.0
  O2-  O1  1  0.71495000  0.59872000  0.25000000  1.0
  O2-  O1  1  0.71495000  0.79872000  0.25000000  1.0
  O2-  O1  1  0.71495000  0.99872000  0.25000000  1.0
  O2-  O1  1  0.03505000  0.09872000  0.25000000  1.0
  O2-  O1  1  0.03505000  0.29872000  0.25000000  1.0
  O2-  O1  1  0.03505000  0.49872000  0.25000000  1.0
  O2-  O1  1  0.03505000  0.69872000  0.25000000  1.0
  O2-  O1  1  0.03505000  0.89872000  0.25000000  1.0
  O2-  O1  1  0.53505000  0.09872000  0.25000000  1.0
  O2-  O1  1  0.53505000  0.29872000  0.25000000  1.0
  O2-  O1  1  0.53505000  0.49872000  0.25000000  1.0
  O2-  O1  1  0.53505000  0.69872000  0.25000000  1.0
  O2-  O1  1  0.53505000  0.89872000  0.25000000  1.0
  O2-  O1  1  0.28505000  0.00128000  0.75000000  1.0
  O2-  O1  1  0.28505000  0.20128000  0.75000000  1.0
  O2-  O1  1  0.28505000  0.40128000  0.75000000  1.0
  O2-  O1  1  0.28505000  0.60128000  0.75000000  1.0
  O2-  O1  1  0.28505000  0.80128000  0.75000000  1.0
  O2-  O1  1  0.78505000  0.00128000  0.75000000  1.0
  O2-  O1  1  0.78505000  0.20128000  0.75000000  1.0
  O2-  O1  1  0.78505000  0.40128000  0.75000000  1.0
  O2-  O1  1  0.78505000  0.60128000  0.75000000  1.0
  O2-  O1  1  0.78505000  0.80128000  0.75000000  1.0
  O2-  O1  1  0.46495000  0.10128000  0.75000000  1.0
  O2-  O1  1  0.46495000  0.30128000  0.75000000  1.0
  O2-  O1  1  0.46495000  0.50128000  0.75000000  1.0
  O2-  O1  1  0.46495000  0.70128000  0.75000000  1.0
  O2-  O1  1  0.46495000  0.90128000  0.75000000  1.0
  O2-  O1  1  0.96495000  0.10128000  0.75000000  1.0
  O2-  O1  1  0.96495000  0.30128000  0.75000000  1.0
  O2-  O1  1  0.96495000  0.50128000  0.75000000  1.0
  O2-  O1  1  0.96495000  0.70128000  0.75000000  1.0
  O2-  O1  1  0.96495000  0.90128000  0.75000000  1.0
  O2-  O2  1  0.39045000  0.15622000  0.03530000  1.0
  O2-  O2  1  0.39045000  0.35622000  0.03530000  1.0
  O2-  O2  1  0.39045000  0.55622000  0.03530000  1.0
  O2-  O2  1  0.39045000  0.75622000  0.03530000  1.0
  O2-  O2  1  0.39045000  0.95622000  0.03530000  1.0
  O2-  O2  1  0.89045000  0.15622000  0.03530000  1.0
  O2-  O2  1  0.89045000  0.35622000  0.03530000  1.0
  O2-  O2  1  0.89045000  0.55622000  0.03530000  1.0
  O2-  O2  1  0.89045000  0.75622000  0.03530000  1.0
  O2-  O2  1  0.89045000  0.95622000  0.03530000  1.0
  O2-  O2  1  0.35955000  0.05622000  0.46470000  1.0
  O2-  O2  1  0.35955000  0.25622000  0.46470000  1.0
  O2-  O2  1  0.35955000  0.45622000  0.46470000  1.0
  O2-  O2  1  0.35955000  0.65622000  0.46470000  1.0
  O2-  O2  1  0.35955000  0.85622000  0.46470000  1.0
  O2-  O2  1  0.85955000  0.05622000  0.46470000  1.0
  O2-  O2  1  0.85955000  0.25622000  0.46470000  1.0
  O2-  O2  1  0.85955000  0.45622000  0.46470000  1.0
  O2-  O2  1  0.85955000  0.65622000  0.46470000  1.0
  O2-  O2  1  0.85955000  0.85622000  0.46470000  1.0
  O2-  O2  1  0.10955000  0.04378000  0.53530000  1.0
  O2-  O2  1  0.10955000  0.24378000  0.53530000  1.0
  O2-  O2  1  0.10955000  0.44378000  0.53530000  1.0
  O2-  O2  1  0.10955000  0.64378000  0.53530000  1.0
  O2-  O2  1  0.10955000  0.84378000  0.53530000  1.0
  O2-  O2  1  0.60955000  0.04378000  0.53530000  1.0
  O2-  O2  1  0.60955000  0.24378000  0.53530000  1.0
  O2-  O2  1  0.60955000  0.44378000  0.53530000  1.0
  O2-  O2  1  0.60955000  0.64378000  0.53530000  1.0
  O2-  O2  1  0.60955000  0.84378000  0.53530000  1.0
  O2-  O2  1  0.14045000  0.14378000  0.96470000  1.0
  O2-  O2  1  0.14045000  0.34378000  0.96470000  1.0
  O2-  O2  1  0.14045000  0.54378000  0.96470000  1.0
  O2-  O2  1  0.14045000  0.74378000  0.96470000  1.0
  O2-  O2  1  0.14045000  0.94378000  0.96470000  1.0
  O2-  O2  1  0.64045000  0.14378000  0.96470000  1.0
  O2-  O2  1  0.64045000  0.34378000  0.96470000  1.0
  O2-  O2  1  0.64045000  0.54378000  0.96470000  1.0
  O2-  O2  1  0.64045000  0.74378000  0.96470000  1.0
  O2-  O2  1  0.64045000  0.94378000  0.96470000  1.0
  O2-  O2  1  0.10955000  0.04378000  0.96470000  1.0
  O2-  O2  1  0.10955000  0.24378000  0.96470000  1.0
  O2-  O2  1  0.10955000  0.44378000  0.96470000  1.0
  O2-  O2  1  0.10955000  0.64378000  0.96470000  1.0
  O2-  O2  1  0.10955000  0.84378000  0.96470000  1.0
  O2-  O2  1  0.60955000  0.04378000  0.96470000  1.0
  O2-  O2  1  0.60955000  0.24378000  0.96470000  1.0
  O2-  O2  1  0.60955000  0.44378000  0.96470000  1.0
  O2-  O2  1  0.60955000  0.64378000  0.96470000  1.0
  O2-  O2  1  0.60955000  0.84378000  0.96470000  1.0
  O2-  O2  1  0.14045000  0.14378000  0.53530000  1.0
  O2-  O2  1  0.14045000  0.34378000  0.53530000  1.0
  O2-  O2  1  0.14045000  0.54378000  0.53530000  1.0
  O2-  O2  1  0.14045000  0.74378000  0.53530000  1.0
  O2-  O2  1  0.14045000  0.94378000  0.53530000  1.0
  O2-  O2  1  0.64045000  0.14378000  0.53530000  1.0
  O2-  O2  1  0.64045000  0.34378000  0.53530000  1.0
  O2-  O2  1  0.64045000  0.54378000  0.53530000  1.0
  O2-  O2  1  0.64045000  0.74378000  0.53530000  1.0
  O2-  O2  1  0.64045000  0.94378000  0.53530000  1.0
  O2-  O2  1  0.39045000  0.15622000  0.46470000  1.0
  O2-  O2  1  0.39045000  0.35622000  0.46470000  1.0
  O2-  O2  1  0.39045000  0.55622000  0.46470000  1.0
  O2-  O2  1  0.39045000  0.75622000  0.46470000  1.0
  O2-  O2  1  0.39045000  0.95622000  0.46470000  1.0
  O2-  O2  1  0.89045000  0.15622000  0.46470000  1.0
  O2-  O2  1  0.89045000  0.35622000  0.46470000  1.0
  O2-  O2  1  0.89045000  0.55622000  0.46470000  1.0
  O2-  O2  1  0.89045000  0.75622000  0.46470000  1.0
  O2-  O2  1  0.89045000  0.95622000  0.46470000  1.0
  O2-  O2  1  0.35955000  0.05622000  0.03530000  1.0
  O2-  O2  1  0.35955000  0.25622000  0.03530000  1.0
  O2-  O2  1  0.35955000  0.45622000  0.03530000  1.0
  O2-  O2  1  0.35955000  0.65622000  0.03530000  1.0
  O2-  O2  1  0.35955000  0.85622000  0.03530000  1.0
  O2-  O2  1  0.85955000  0.05622000  0.03530000  1.0
  O2-  O2  1  0.85955000  0.25622000  0.03530000  1.0
  O2-  O2  1  0.85955000  0.45622000  0.03530000  1.0
  O2-  O2  1  0.85955000  0.65622000  0.03530000  1.0
  O2-  O2  1  0.85955000  0.85622000  0.03530000  1.0
