# generated using pymatgen
data_Li25La12Zr8AlO48
_symmetry_space_group_name_H-M   'P 1'
_cell_length_a   11.22652980
_cell_length_b   11.22652980
_cell_length_c   22.45305960
_cell_angle_alpha   109.47122063
_cell_angle_beta   70.52877937
_cell_angle_gamma   70.52877937
_symmetry_Int_Tables_number   1
_chemical_formula_structural   Li25La12Zr8AlO48
_chemical_formula_sum   'Li50 La24 Zr16 Al2 O96'
_cell_volume   2178.43549894
_cell_formula_units_Z   2
loop_
 _symmetry_equiv_pos_site_id
 _symmetry_equiv_pos_as_xyz
  1  'x, y, z'
loop_
 _atom_type_symbol
 _atom_type_oxidation_number
  Li+  1.0
  La3+  3.0
  Zr4+  4.0
  Al3+  3.0
  O2-  -2.0
loop_
 _atom_site_type_symbol
 _atom_site_label
 _atom_site_symmetry_multiplicity
 _atom_site_fract_x
 _atom_site_fract_y
 _atom_site_fract_z
 _atom_site_occupancy
  Li+  Li0  1  0.11910000  0.90370000  0.58450000  1.0
  Li+  Li1  1  0.11910000  0.90370000  0.08450000  1.0
  Li+  Li2  1  0.38090000  0.28810000  0.26140000  1.0
  Li+  Li3  1  0.38090000  0.28810000  0.76140000  1.0
  Li+  Li4  1  0.23470000  0.59630000  0.48860000  1.0
  Li+  Li5  1  0.23470000  0.59630000  0.98860000  1.0
  Li+  Li6  1  0.78436580  0.33547822  0.36194136  1.0
  Li+  Li7  1  0.78810000  0.33100000  0.86735000  1.0
  Li+  Li8  1  0.40370000  0.97720000  0.38265000  1.0
  Li+  Li9  1  0.40370000  0.97720000  0.88265000  1.0
  Li+  Li10  1  0.02280000  0.76530000  0.29815000  1.0
  Li+  Li11  1  0.02280000  0.76530000  0.79815000  1.0
  Li+  Li12  1  0.83100000  0.88090000  0.45185000  1.0
  Li+  Li13  1  0.83100000  0.88090000  0.95185000  1.0
  Li+  Li14  1  0.88090000  0.09630000  0.41550000  1.0
  Li+  Li15  1  0.88090000  0.09630000  0.91550000  1.0
  Li+  Li16  1  0.73470000  0.78810000  0.33450000  1.0
  Li+  Li17  1  0.73470000  0.78810000  0.83450000  1.0
  Li+  Li18  1  0.76530000  0.40370000  0.51140000  1.0
  Li+  Li19  1  0.76530000  0.40370000  0.01140000  1.0
  Li+  Li20  1  0.59630000  0.02280000  0.61735000  1.0
  Li+  Li21  1  0.59630000  0.02280000  0.11735000  1.0
  Li+  Li22  1  0.28810000  0.47720000  0.69045000  1.0
  Li+  Li23  1  0.29228935  0.47409091  0.19301272  1.0
  Li+  Li24  1  0.52280000  0.38090000  0.35595000  1.0
  Li+  Li25  1  0.52280000  0.38090000  0.85595000  1.0
  Li+  Li26  1  0.16900000  0.11910000  0.54815000  1.0
  Li+  Li27  1  0.16900000  0.11910000  0.04815000  1.0
  Li+  Li28  1  0.16900000  0.71190000  0.61735000  1.0
  Li+  Li29  1  0.16900000  0.71190000  0.11735000  1.0
  Li+  Li30  1  0.23470000  0.16900000  0.64405000  1.0
  Li+  Li31  1  0.23439108  0.16912570  0.14347772  1.0
  Li+  Li32  1  0.40370000  0.61910000  0.66550000  1.0
  Li+  Li33  1  0.40370000  0.61910000  0.16550000  1.0
  Li+  Li34  1  0.75000000  0.87500000  0.56250000  1.0
  Li+  Li35  1  0.75115227  0.87512171  0.06620360  1.0
  Li+  Li36  1  0.62500000  0.75000000  0.31250000  1.0
  Li+  Li37  1  0.62069082  0.75164237  0.81331635  1.0
  Li+  Li38  1  0.87500000  0.25000000  0.43750000  1.0
  Li+  Li39  1  0.87500000  0.25000000  0.93750000  1.0
  Li+  Li40  1  0.24745908  0.12275572  0.43880164  1.0
  Li+  Li41  1  0.24953613  0.12300420  0.93859620  1.0
  Li+  Li42  1  0.62500000  0.62500000  0.62500000  1.0
  Li+  Li43  1  0.62500000  0.62500000  0.12500000  1.0
  Li+  Li44  1  0.87500000  0.87500000  0.37500000  1.0
  Li+  Li45  1  0.87500000  0.87500000  0.87500000  1.0
  Li+  Li46  1  0.37500000  0.25000000  0.68750000  1.0
  Li+  Li47  1  0.37505501  0.25107553  0.18943207  1.0
  Li+  Li48  1  0.12500000  0.75000000  0.56250000  1.0
  Li+  Li49  1  0.12500000  0.75000000  0.06250000  1.0
  La3+  La50  1  0.75313371  0.62791520  0.43581914  1.0
  La3+  La51  1  0.75000000  0.62500000  0.93750000  1.0
  La3+  La52  1  0.25000000  0.87500000  0.31250000  1.0
  La3+  La53  1  0.25000000  0.87500000  0.81250000  1.0
  La3+  La54  1  0.12500000  0.62500000  0.37500000  1.0
  La3+  La55  1  0.12500000  0.62500000  0.87500000  1.0
  La3+  La56  1  0.37500000  0.87500000  0.62500000  1.0
  La3+  La57  1  0.37893563  0.87108564  0.12021842  1.0
  La3+  La58  1  0.37516609  0.75351299  0.43435976  1.0
  La3+  La59  1  0.37500000  0.75000000  0.93750000  1.0
  La3+  La60  1  0.12500000  0.25000000  0.31250000  1.0
  La3+  La61  1  0.12500000  0.25000000  0.81250000  1.0
  La3+  La62  1  0.25000000  0.37500000  0.56250000  1.0
  La3+  La63  1  0.25000000  0.37500000  0.06250000  1.0
  La3+  La64  1  0.75545521  0.12986139  0.68838890  1.0
  La3+  La65  1  0.74907375  0.12522382  0.18793266  1.0
  La3+  La66  1  0.87500000  0.37500000  0.62500000  1.0
  La3+  La67  1  0.87500000  0.37500000  0.12500000  1.0
  La3+  La68  1  0.62500000  0.12500000  0.37500000  1.0
  La3+  La69  1  0.62205374  0.12281164  0.87507823  1.0
  La3+  La70  1  0.63027416  0.25335824  0.56778330  1.0
  La3+  La71  1  0.62500000  0.25000000  0.06250000  1.0
  La3+  La72  1  0.87500000  0.75000000  0.68750000  1.0
  La3+  La73  1  0.87178037  0.75120889  0.19183261  1.0
  Zr4+  Zr74  1  0.00000000  0.50000000  0.75000000  1.0
  Zr4+  Zr75  1  0.99843172  0.50294803  0.25028438  1.0
  Zr4+  Zr76  1  0.50000000  0.50000000  0.50000000  1.0
  Zr4+  Zr77  1  0.49944993  0.50034397  0.99331221  1.0
  Zr4+  Zr78  1  0.00000000  0.00000000  0.50000000  1.0
  Zr4+  Zr79  1  0.00000000  0.00000000  0.00000000  1.0
  Zr4+  Zr80  1  0.50000000  0.00000000  0.75000000  1.0
  Zr4+  Zr81  1  0.50000000  0.00000000  0.25000000  1.0
  Zr4+  Zr82  1  0.99531907  0.49824201  0.50219428  1.0
  Zr4+  Zr83  1  0.00000000  0.50000000  0.00000000  1.0
  Zr4+  Zr84  1  0.50000000  0.50000000  0.75000000  1.0
  Zr4+  Zr85  1  0.50000000  0.50000000  0.25000000  1.0
  Zr4+  Zr86  1  0.50000000  0.00000000  0.50000000  1.0
  Zr4+  Zr87  1  0.50000000  0.00000000  0.00000000  1.0
  Zr4+  Zr88  1  0.00000000  0.00000000  0.75000000  1.0
  Zr4+  Zr89  1  0.00000000  0.00000000  0.25000000  1.0
  Al3+  Al90  1  0.37500000  0.37500000  0.37500000  1.0
  Al3+  Al91  1  0.37500000  0.37500000  0.87500000  1.0
  O2-  O92  1  0.90225153  0.41540536  0.30847619  1.0
  O2-  O93  1  0.90300000  0.41434000  0.80937000  1.0
  O2-  O94  1  0.59802654  0.52024704  0.41048036  1.0
  O2-  O95  1  0.59700000  0.52174000  0.90867000  1.0
  O2-  O96  1  0.20440000  0.97826000  0.44063000  1.0
  O2-  O97  1  0.20440000  0.97826000  0.94063000  1.0
  O2-  O98  1  0.29560000  0.08566000  0.34133000  1.0
  O2-  O99  1  0.29618097  0.08413541  0.84391502  1.0
  O2-  O100  1  0.02174000  0.88126000  0.39780000  1.0
  O2-  O101  1  0.02174000  0.88126000  0.89780000  1.0
  O2-  O102  1  0.91442107  0.68398769  0.34955836  1.0
  O2-  O103  1  0.91931206  0.68347534  0.85083275  1.0
  O2-  O104  1  0.58566000  0.61874000  0.54850000  1.0
  O2-  O105  1  0.58566000  0.61874000  0.04850000  1.0
  O2-  O106  1  0.47826000  0.81734000  0.70150000  1.0
  O2-  O107  1  0.47826000  0.81734000  0.20150000  1.0
  O2-  O108  1  0.31734000  0.70440000  0.54283000  1.0
  O2-  O109  1  0.31912052  0.69865024  0.04406118  1.0
  O2-  O110  1  0.11649971  0.79503026  0.48823050  1.0
  O2-  O111  1  0.11874000  0.79560000  0.98913000  1.0
  O2-  O112  1  0.18266000  0.40300000  0.26087000  1.0
  O2-  O113  1  0.18028862  0.40243951  0.75904113  1.0
  O2-  O114  1  0.38126000  0.09700000  0.70717000  1.0
  O2-  O115  1  0.38295283  0.09471276  0.20354740  1.0
  O2-  O116  1  0.10128638  0.58772884  0.68949587  1.0
  O2-  O117  1  0.09436091  0.58542960  0.18716703  1.0
  O2-  O118  1  0.40300000  0.47826000  0.59133000  1.0
  O2-  O119  1  0.40300000  0.47826000  0.09133000  1.0
  O2-  O120  1  0.79560000  0.02174000  0.55937000  1.0
  O2-  O121  1  0.79848633  0.02142451  0.05860936  1.0
  O2-  O122  1  0.70440000  0.91434000  0.65867000  1.0
  O2-  O123  1  0.70440000  0.91434000  0.15867000  1.0
  O2-  O124  1  0.97826000  0.11874000  0.60220000  1.0
  O2-  O125  1  0.97826000  0.11874000  0.10220000  1.0
  O2-  O126  1  0.08566000  0.31734000  0.64780000  1.0
  O2-  O127  1  0.08765062  0.31589167  0.14859734  1.0
  O2-  O128  1  0.41434000  0.38126000  0.45150000  1.0
  O2-  O129  1  0.41217203  0.38415327  0.95167274  1.0
  O2-  O130  1  0.52174000  0.18266000  0.29850000  1.0
  O2-  O131  1  0.52112604  0.18224065  0.79673075  1.0
  O2-  O132  1  0.68814399  0.29680719  0.45783112  1.0
  O2-  O133  1  0.68266000  0.29560000  0.95717000  1.0
  O2-  O134  1  0.88126000  0.20440000  0.51087000  1.0
  O2-  O135  1  0.88126000  0.20440000  0.01087000  1.0
  O2-  O136  1  0.81734000  0.59700000  0.73913000  1.0
  O2-  O137  1  0.81734000  0.59700000  0.23913000  1.0
  O2-  O138  1  0.61874000  0.90300000  0.29283000  1.0
  O2-  O139  1  0.61766447  0.89890803  0.78997105  1.0
  O2-  O140  1  0.81734000  0.58566000  0.60220000  1.0
  O2-  O141  1  0.81734000  0.58566000  0.10220000  1.0
  O2-  O142  1  0.61874000  0.47826000  0.64780000  1.0
  O2-  O143  1  0.61874000  0.47826000  0.14780000  1.0
  O2-  O144  1  0.68266000  0.02174000  0.45150000  1.0
  O2-  O145  1  0.68380070  0.02158973  0.94873772  1.0
  O2-  O146  1  0.88169096  0.91723410  0.30140419  1.0
  O2-  O147  1  0.88126000  0.91434000  0.79850000  1.0
  O2-  O148  1  0.40107405  0.12189835  0.45321266  1.0
  O2-  O149  1  0.40300000  0.11874000  0.95717000  1.0
  O2-  O150  1  0.09700000  0.31734000  0.51087000  1.0
  O2-  O151  1  0.09700000  0.31734000  0.01087000  1.0
  O2-  O152  1  0.70440000  0.38126000  0.73913000  1.0
  O2-  O153  1  0.70440000  0.38126000  0.23913000  1.0
  O2-  O154  1  0.79560000  0.18266000  0.29283000  1.0
  O2-  O155  1  0.79560000  0.18266000  0.79283000  1.0
  O2-  O156  1  0.52174000  0.29560000  0.69063000  1.0
  O2-  O157  1  0.52174000  0.29560000  0.19063000  1.0
  O2-  O158  1  0.41523072  0.20351548  0.59040679  1.0
  O2-  O159  1  0.41593705  0.20334612  0.09234696  1.0
  O2-  O160  1  0.08566000  0.59700000  0.55937000  1.0
  O2-  O161  1  0.08359325  0.59612516  0.05904797  1.0
  O2-  O162  1  0.97826000  0.90300000  0.65867000  1.0
  O2-  O163  1  0.97826000  0.90300000  0.15867000  1.0
  O2-  O164  1  0.18266000  0.41434000  0.39780000  1.0
  O2-  O165  1  0.18234393  0.41483147  0.89447479  1.0
  O2-  O166  1  0.38126000  0.52174000  0.35220000  1.0
  O2-  O167  1  0.37382850  0.52305122  0.84895121  1.0
  O2-  O168  1  0.31734000  0.97826000  0.54850000  1.0
  O2-  O169  1  0.31734000  0.97826000  0.04850000  1.0
  O2-  O170  1  0.11426105  0.08736264  0.69902738  1.0
  O2-  O171  1  0.11961442  0.08527498  0.19906253  1.0
  O2-  O172  1  0.59700000  0.88126000  0.54283000  1.0
  O2-  O173  1  0.59700000  0.88126000  0.04283000  1.0
  O2-  O174  1  0.90300000  0.68266000  0.48913000  1.0
  O2-  O175  1  0.90300000  0.68266000  0.98913000  1.0
  O2-  O176  1  0.29560000  0.61874000  0.26087000  1.0
  O2-  O177  1  0.29560000  0.61874000  0.76087000  1.0
  O2-  O178  1  0.20440000  0.81734000  0.70717000  1.0
  O2-  O179  1  0.20440000  0.81734000  0.20717000  1.0
  O2-  O180  1  0.47826000  0.70440000  0.30937000  1.0
  O2-  O181  1  0.47826000  0.70440000  0.80937000  1.0
  O2-  O182  1  0.58566000  0.79560000  0.40867000  1.0
  O2-  O183  1  0.58566000  0.79560000  0.90867000  1.0
  O2-  O184  1  0.91528488  0.39833929  0.44276786  1.0
  O2-  O185  1  0.91434000  0.40300000  0.94063000  1.0
  O2-  O186  1  0.02174000  0.09700000  0.34133000  1.0
  O2-  O187  1  0.02174000  0.09700000  0.84133000  1.0
