# generated using pymatgen
data_Li25La12Zr8AlO48
_symmetry_space_group_name_H-M   'P 1'
_cell_length_a   22.38788838
_cell_length_b   11.19394419
_cell_length_c   11.19394419
_cell_angle_alpha   70.52877937
_cell_angle_beta   70.52877937
_cell_angle_gamma   109.47122063
_symmetry_Int_Tables_number   1
_chemical_formula_structural   Li25La12Zr8AlO48
_chemical_formula_sum   'Li50 La24 Zr16 Al2 O96'
_cell_volume   2159.52142384
_cell_formula_units_Z   2
loop_
 _symmetry_equiv_pos_site_id
 _symmetry_equiv_pos_as_xyz
  1  'x, y, z'
loop_
 _atom_type_symbol
 _atom_type_oxidation_number
  Li+  1.0
  La3+  3.0
  Zr4+  4.0
  Al3+  3.0
  O2-  -2.0
loop_
 _atom_site_type_symbol
 _atom_site_label
 _atom_site_symmetry_multiplicity
 _atom_site_fract_x
 _atom_site_fract_y
 _atom_site_fract_z
 _atom_site_occupancy
  Li+  Li0  1  0.83450000  0.54756667  0.09630000  1.0
  Li+  Li1  1  0.33450000  0.54756667  0.09630000  1.0
  Li+  Li2  1  0.51140000  0.28576667  0.71190000  1.0
  Li+  Li3  1  0.01140000  0.28576667  0.71190000  1.0
  Li+  Li4  1  0.73860000  0.43196667  0.40370000  1.0
  Li+  Li5  1  0.23860000  0.43196667  0.40370000  1.0
  Li+  Li6  1  0.61735000  0.87856667  0.66900000  1.0
  Li+  Li7  1  0.11735000  0.87856667  0.66900000  1.0
  Li+  Li8  1  0.63265000  0.26296667  0.02280000  1.0
  Li+  Li9  1  0.13265000  0.26296667  0.02280000  1.0
  Li+  Li10  1  0.54815000  0.64386667  0.23470000  1.0
  Li+  Li11  1  0.04815000  0.64386667  0.23470000  1.0
  Li+  Li12  1  0.70185000  0.83566667  0.11910000  1.0
  Li+  Li13  1  0.20185000  0.83566667  0.11910000  1.0
  Li+  Li14  1  0.66550000  0.78576667  0.90370000  1.0
  Li+  Li15  1  0.16550000  0.78576667  0.90370000  1.0
  Li+  Li16  1  0.58450000  0.93196667  0.21190000  1.0
  Li+  Li17  1  0.08450000  0.93196667  0.21190000  1.0
  Li+  Li18  1  0.76140000  0.90136667  0.59630000  1.0
  Li+  Li19  1  0.26140000  0.90136667  0.59630000  1.0
  Li+  Li20  1  0.86735000  0.07036667  0.97720000  1.0
  Li+  Li21  1  0.36735000  0.07036667  0.97720000  1.0
  Li+  Li22  1  0.94045000  0.37856667  0.52280000  1.0
  Li+  Li23  1  0.44045000  0.37856667  0.52280000  1.0
  Li+  Li24  1  0.60595000  0.14386667  0.61910000  1.0
  Li+  Li25  1  0.10595000  0.14386667  0.61910000  1.0
  Li+  Li26  1  0.79815000  0.49766667  0.88090000  1.0
  Li+  Li27  1  0.29815000  0.49766667  0.88090000  1.0
  Li+  Li28  1  0.86735000  0.49766667  0.28810000  1.0
  Li+  Li29  1  0.36735000  0.49766667  0.28810000  1.0
  Li+  Li30  1  0.89405000  0.43196667  0.83100000  1.0
  Li+  Li31  1  0.39405000  0.43196667  0.83100000  1.0
  Li+  Li32  1  0.91550000  0.26296667  0.38090000  1.0
  Li+  Li33  1  0.41550000  0.26296667  0.38090000  1.0
  Li+  Li34  1  0.81250000  0.91666667  0.12500000  1.0
  Li+  Li35  1  0.31250000  0.91666667  0.12500000  1.0
  Li+  Li36  1  0.56250000  0.04166667  0.25000000  1.0
  Li+  Li37  1  0.06250000  0.04166667  0.25000000  1.0
  Li+  Li38  1  0.68750000  0.79166667  0.75000000  1.0
  Li+  Li39  1  0.18750000  0.79166667  0.75000000  1.0
  Li+  Li40  1  0.68750000  0.41666667  0.87500000  1.0
  Li+  Li41  1  0.18750000  0.41666667  0.87500000  1.0
  Li+  Li42  1  0.87500000  0.04166667  0.37500000  1.0
  Li+  Li43  1  0.37500000  0.04166667  0.37500000  1.0
  Li+  Li44  1  0.62500000  0.79166667  0.12500000  1.0
  Li+  Li45  1  0.12500000  0.79166667  0.12500000  1.0
  Li+  Li46  1  0.93750000  0.29166667  0.75000000  1.0
  Li+  Li47  1  0.43750000  0.29166667  0.75000000  1.0
  Li+  Li48  1  0.81250000  0.54166667  0.25000000  1.0
  Li+  Li49  1  0.31250000  0.54166667  0.25000000  1.0
  La3+  La50  1  0.68750000  0.91666667  0.37500000  1.0
  La3+  La51  1  0.18750000  0.91666667  0.37500000  1.0
  La3+  La52  1  0.56250000  0.41666667  0.12500000  1.0
  La3+  La53  1  0.06250000  0.41666667  0.12500000  1.0
  La3+  La54  1  0.62500000  0.54166667  0.37500000  1.0
  La3+  La55  1  0.12500000  0.54166667  0.37500000  1.0
  La3+  La56  1  0.87500000  0.29166667  0.12500000  1.0
  La3+  La57  1  0.37500000  0.29166667  0.12500000  1.0
  La3+  La58  1  0.68750000  0.29166667  0.25000000  1.0
  La3+  La59  1  0.18750000  0.29166667  0.25000000  1.0
  La3+  La60  1  0.56250000  0.54166667  0.75000000  1.0
  La3+  La61  1  0.06250000  0.54166667  0.75000000  1.0
  La3+  La62  1  0.81250000  0.41666667  0.62500000  1.0
  La3+  La63  1  0.31250000  0.41666667  0.62500000  1.0
  La3+  La64  1  0.93750000  0.91666667  0.87500000  1.0
  La3+  La65  1  0.43750000  0.91666667  0.87500000  1.0
  La3+  La66  1  0.87500000  0.79166667  0.62500000  1.0
  La3+  La67  1  0.37500000  0.79166667  0.62500000  1.0
  La3+  La68  1  0.62500000  0.04166667  0.87500000  1.0
  La3+  La69  1  0.12500000  0.04166667  0.87500000  1.0
  La3+  La70  1  0.81250000  0.04166667  0.75000000  1.0
  La3+  La71  1  0.31250000  0.04166667  0.75000000  1.0
  La3+  La72  1  0.93750000  0.79166667  0.25000000  1.0
  La3+  La73  1  0.43750000  0.79166667  0.25000000  1.0
  Zr4+  Zr74  1  0.00000000  0.66666667  0.50000000  1.0
  Zr4+  Zr75  1  0.50000000  0.66666667  0.50000000  1.0
  Zr4+  Zr76  1  0.75000000  0.16666667  0.50000000  1.0
  Zr4+  Zr77  1  0.25000000  0.16666667  0.50000000  1.0
  Zr4+  Zr78  1  0.75000000  0.66666667  0.00000000  1.0
  Zr4+  Zr79  1  0.25000000  0.66666667  0.00000000  1.0
  Zr4+  Zr80  1  0.00000000  0.16666667  0.00000000  1.0
  Zr4+  Zr81  1  0.50000000  0.16666667  0.00000000  1.0
  Zr4+  Zr82  1  0.75000000  0.66666667  0.50000000  1.0
  Zr4+  Zr83  1  0.25000000  0.66666667  0.50000000  1.0
  Zr4+  Zr84  1  0.00000000  0.16666667  0.50000000  1.0
  Zr4+  Zr85  1  0.50000000  0.16666667  0.50000000  1.0
  Zr4+  Zr86  1  0.75000000  0.16666667  0.00000000  1.0
  Zr4+  Zr87  1  0.25000000  0.16666667  0.00000000  1.0
  Zr4+  Zr88  1  0.00000000  0.66666667  0.00000000  1.0
  Zr4+  Zr89  1  0.50000000  0.66666667  0.00000000  1.0
  Al3+  Al90  1  0.62500000  0.29166667  0.62500000  1.0
  Al3+  Al91  1  0.12500000  0.29166667  0.62500000  1.0
  O2-  O92  1  0.55937000  0.76366667  0.58566000  1.0
  O2-  O93  1  0.05937000  0.76366667  0.58566000  1.0
  O2-  O94  1  0.65867000  0.06966667  0.47826000  1.0
  O2-  O95  1  0.15867000  0.06966667  0.47826000  1.0
  O2-  O96  1  0.69063000  0.46226667  0.02174000  1.0
  O2-  O97  1  0.19063000  0.46226667  0.02174000  1.0
  O2-  O98  1  0.59133000  0.37106667  0.91434000  1.0
  O2-  O99  1  0.09133000  0.37106667  0.91434000  1.0
  O2-  O100  1  0.64780000  0.64492667  0.11874000  1.0
  O2-  O101  1  0.14780000  0.64492667  0.11874000  1.0
  O2-  O102  1  0.60220000  0.75232667  0.31734000  1.0
  O2-  O103  1  0.10220000  0.75232667  0.31734000  1.0
  O2-  O104  1  0.79850000  0.08100667  0.38126000  1.0
  O2-  O105  1  0.29850000  0.08100667  0.38126000  1.0
  O2-  O106  1  0.95150000  0.18840667  0.18266000  1.0
  O2-  O107  1  0.45150000  0.18840667  0.18266000  1.0
  O2-  O108  1  0.79283000  0.34932667  0.29560000  1.0
  O2-  O109  1  0.29283000  0.34932667  0.29560000  1.0
  O2-  O110  1  0.73913000  0.54792667  0.20440000  1.0
  O2-  O111  1  0.23913000  0.54792667  0.20440000  1.0
  O2-  O112  1  0.51087000  0.48400667  0.59700000  1.0
  O2-  O113  1  0.01087000  0.48400667  0.59700000  1.0
  O2-  O114  1  0.95717000  0.28540667  0.90300000  1.0
  O2-  O115  1  0.45717000  0.28540667  0.90300000  1.0
  O2-  O116  1  0.94063000  0.56966667  0.41434000  1.0
  O2-  O117  1  0.44063000  0.56966667  0.41434000  1.0
  O2-  O118  1  0.84133000  0.26366667  0.52174000  1.0
  O2-  O119  1  0.34133000  0.26366667  0.52174000  1.0
  O2-  O120  1  0.80937000  0.87106667  0.97826000  1.0
  O2-  O121  1  0.30937000  0.87106667  0.97826000  1.0
  O2-  O122  1  0.90867000  0.96226667  0.08566000  1.0
  O2-  O123  1  0.40867000  0.96226667  0.08566000  1.0
  O2-  O124  1  0.85220000  0.68840667  0.88126000  1.0
  O2-  O125  1  0.35220000  0.68840667  0.88126000  1.0
  O2-  O126  1  0.89780000  0.58100667  0.68266000  1.0
  O2-  O127  1  0.39780000  0.58100667  0.68266000  1.0
  O2-  O128  1  0.70150000  0.25232667  0.61874000  1.0
  O2-  O129  1  0.20150000  0.25232667  0.61874000  1.0
  O2-  O130  1  0.54850000  0.14492667  0.81734000  1.0
  O2-  O131  1  0.04850000  0.14492667  0.81734000  1.0
  O2-  O132  1  0.70717000  0.98400667  0.70440000  1.0
  O2-  O133  1  0.20717000  0.98400667  0.70440000  1.0
  O2-  O134  1  0.76087000  0.78540667  0.79560000  1.0
  O2-  O135  1  0.26087000  0.78540667  0.79560000  1.0
  O2-  O136  1  0.98913000  0.84932667  0.40300000  1.0
  O2-  O137  1  0.48913000  0.84932667  0.40300000  1.0
  O2-  O138  1  0.54283000  0.04792667  0.09700000  1.0
  O2-  O139  1  0.04283000  0.04792667  0.09700000  1.0
  O2-  O140  1  0.85220000  0.84932667  0.41434000  1.0
  O2-  O141  1  0.35220000  0.84932667  0.41434000  1.0
  O2-  O142  1  0.89780000  0.04792667  0.52174000  1.0
  O2-  O143  1  0.39780000  0.04792667  0.52174000  1.0
  O2-  O144  1  0.70150000  0.98400667  0.97826000  1.0
  O2-  O145  1  0.20150000  0.98400667  0.97826000  1.0
  O2-  O146  1  0.54850000  0.78540667  0.08566000  1.0
  O2-  O147  1  0.04850000  0.78540667  0.08566000  1.0
  O2-  O148  1  0.70717000  0.26366667  0.88126000  1.0
  O2-  O149  1  0.20717000  0.26366667  0.88126000  1.0
  O2-  O150  1  0.76087000  0.56966667  0.68266000  1.0
  O2-  O151  1  0.26087000  0.56966667  0.68266000  1.0
  O2-  O152  1  0.98913000  0.96226667  0.61874000  1.0
  O2-  O153  1  0.48913000  0.96226667  0.61874000  1.0
  O2-  O154  1  0.54283000  0.87106667  0.81734000  1.0
  O2-  O155  1  0.04283000  0.87106667  0.81734000  1.0
  O2-  O156  1  0.94063000  0.14492667  0.70440000  1.0
  O2-  O157  1  0.44063000  0.14492667  0.70440000  1.0
  O2-  O158  1  0.84133000  0.25232667  0.79560000  1.0
  O2-  O159  1  0.34133000  0.25232667  0.79560000  1.0
  O2-  O160  1  0.80937000  0.58100667  0.40300000  1.0
  O2-  O161  1  0.30937000  0.58100667  0.40300000  1.0
  O2-  O162  1  0.90867000  0.68840667  0.09700000  1.0
  O2-  O163  1  0.40867000  0.68840667  0.09700000  1.0
  O2-  O164  1  0.64780000  0.48400667  0.58566000  1.0
  O2-  O165  1  0.14780000  0.48400667  0.58566000  1.0
  O2-  O166  1  0.60220000  0.28540667  0.47826000  1.0
  O2-  O167  1  0.10220000  0.28540667  0.47826000  1.0
  O2-  O168  1  0.79850000  0.34932667  0.02174000  1.0
  O2-  O169  1  0.29850000  0.34932667  0.02174000  1.0
  O2-  O170  1  0.95150000  0.54792667  0.91434000  1.0
  O2-  O171  1  0.45150000  0.54792667  0.91434000  1.0
  O2-  O172  1  0.79283000  0.06966667  0.11874000  1.0
  O2-  O173  1  0.29283000  0.06966667  0.11874000  1.0
  O2-  O174  1  0.73913000  0.76366667  0.31734000  1.0
  O2-  O175  1  0.23913000  0.76366667  0.31734000  1.0
  O2-  O176  1  0.51087000  0.37106667  0.38126000  1.0
  O2-  O177  1  0.01087000  0.37106667  0.38126000  1.0
  O2-  O178  1  0.95717000  0.46226667  0.18266000  1.0
  O2-  O179  1  0.45717000  0.46226667  0.18266000  1.0
  O2-  O180  1  0.55937000  0.18840667  0.29560000  1.0
  O2-  O181  1  0.05937000  0.18840667  0.29560000  1.0
  O2-  O182  1  0.65867000  0.08100667  0.20440000  1.0
  O2-  O183  1  0.15867000  0.08100667  0.20440000  1.0
  O2-  O184  1  0.69063000  0.75232667  0.59700000  1.0
  O2-  O185  1  0.19063000  0.75232667  0.59700000  1.0
  O2-  O186  1  0.59133000  0.64492667  0.90300000  1.0
  O2-  O187  1  0.09133000  0.64492667  0.90300000  1.0
