# generated using pymatgen
data_Li25La12Zr8AlO48
_symmetry_space_group_name_H-M   'P 1'
_cell_length_a   11.22652980
_cell_length_b   22.45305960
_cell_length_c   11.22652980
_cell_angle_alpha   109.47122063
_cell_angle_beta   109.47122063
_cell_angle_gamma   109.47122063
_symmetry_Int_Tables_number   1
_chemical_formula_structural   Li25La12Zr8AlO48
_chemical_formula_sum   'Li50 La24 Zr16 Al2 O96'
_cell_volume   2178.43549894
_cell_formula_units_Z   2
loop_
 _symmetry_equiv_pos_site_id
 _symmetry_equiv_pos_as_xyz
  1  'x, y, z'
loop_
 _atom_type_symbol
 _atom_type_oxidation_number
  Li+  1.0
  La3+  3.0
  Zr4+  4.0
  Al3+  3.0
  O2-  -2.0
loop_
 _atom_site_type_symbol
 _atom_site_label
 _atom_site_symmetry_multiplicity
 _atom_site_fract_x
 _atom_site_fract_y
 _atom_site_fract_z
 _atom_site_occupancy
  Li+  Li0  1  0.11910000  0.16550000  0.09630000  1.0
  Li+  Li0  1  0.11910000  0.66550000  0.09630000  1.0
  Li+  Li1  1  0.38090000  0.48860000  0.71190000  1.0
  Li+  Li1  1  0.38090000  0.98860000  0.71190000  1.0
  Li+  Li2  1  0.23470000  0.26140000  0.40370000  1.0
  Li+  Li2  1  0.23470000  0.76140000  0.40370000  1.0
  Li+  Li3  1  0.78810000  0.38265000  0.66900000  1.0
  Li+  Li3  1  0.78810000  0.88265000  0.66900000  1.0
  Li+  Li4  1  0.40370000  0.36735000  0.02280000  1.0
  Li+  Li4  1  0.40370000  0.86735000  0.02280000  1.0
  Li+  Li5  1  0.02280000  0.45185000  0.23470000  1.0
  Li+  Li5  1  0.02280000  0.95185000  0.23470000  1.0
  Li+  Li6  1  0.83100000  0.29815000  0.11910000  1.0
  Li+  Li6  1  0.83100000  0.79815000  0.11910000  1.0
  Li+  Li7  1  0.88090000  0.33450000  0.90370000  1.0
  Li+  Li7  1  0.88090000  0.83450000  0.90370000  1.0
  Li+  Li8  1  0.73470000  0.41550000  0.21190000  1.0
  Li+  Li8  1  0.73470000  0.91550000  0.21190000  1.0
  Li+  Li9  1  0.76530000  0.23860000  0.59630000  1.0
  Li+  Li9  1  0.76530000  0.73860000  0.59630000  1.0
  Li+  Li10  1  0.59630000  0.13265000  0.97720000  1.0
  Li+  Li10  1  0.59630000  0.63265000  0.97720000  1.0
  Li+  Li11  1  0.28810000  0.05955000  0.52280000  1.0
  Li+  Li11  1  0.28810000  0.55955000  0.52280000  1.0
  Li+  Li12  1  0.52280000  0.39405000  0.61910000  1.0
  Li+  Li12  1  0.52280000  0.89405000  0.61910000  1.0
  Li+  Li13  1  0.16900000  0.20185000  0.88090000  1.0
  Li+  Li13  1  0.16900000  0.70185000  0.88090000  1.0
  Li+  Li14  1  0.16900000  0.13265000  0.28810000  1.0
  Li+  Li14  1  0.16900000  0.63265000  0.28810000  1.0
  Li+  Li15  1  0.23470000  0.10595000  0.83100000  1.0
  Li+  Li15  1  0.23470000  0.60595000  0.83100000  1.0
  Li+  Li16  1  0.40370000  0.08450000  0.38090000  1.0
  Li+  Li16  1  0.40370000  0.58450000  0.38090000  1.0
  Li+  Li17  1  0.75000000  0.18750000  0.12500000  1.0
  Li+  Li17  1  0.75000000  0.68750000  0.12500000  1.0
  Li+  Li18  1  0.62500000  0.43750000  0.25000000  1.0
  Li+  Li18  1  0.62500000  0.93750000  0.25000000  1.0
  Li+  Li19  1  0.87500000  0.31250000  0.75000000  1.0
  Li+  Li19  1  0.87500000  0.81250000  0.75000000  1.0
  Li+  Li20  1  0.25000000  0.31250000  0.87500000  1.0
  Li+  Li20  1  0.25000000  0.81250000  0.87500000  1.0
  Li+  Li21  1  0.62500000  0.12500000  0.37500000  1.0
  Li+  Li21  1  0.62500000  0.62500000  0.37500000  1.0
  Li+  Li22  1  0.87500000  0.37500000  0.12500000  1.0
  Li+  Li22  1  0.87500000  0.87500000  0.12500000  1.0
  Li+  Li23  1  0.37500000  0.06250000  0.75000000  1.0
  Li+  Li23  1  0.37500000  0.56250000  0.75000000  1.0
  Li+  Li24  1  0.12500000  0.18750000  0.25000000  1.0
  Li+  Li24  1  0.12500000  0.68750000  0.25000000  1.0
  La3+  La1  1  0.75000000  0.31250000  0.37500000  1.0
  La3+  La1  1  0.75000000  0.81250000  0.37500000  1.0
  La3+  La1  1  0.25000000  0.43750000  0.12500000  1.0
  La3+  La1  1  0.25000000  0.93750000  0.12500000  1.0
  La3+  La1  1  0.12500000  0.37500000  0.37500000  1.0
  La3+  La1  1  0.12500000  0.87500000  0.37500000  1.0
  La3+  La1  1  0.37500000  0.12500000  0.12500000  1.0
  La3+  La1  1  0.37500000  0.62500000  0.12500000  1.0
  La3+  La1  1  0.37500000  0.31250000  0.25000000  1.0
  La3+  La1  1  0.37500000  0.81250000  0.25000000  1.0
  La3+  La1  1  0.12500000  0.43750000  0.75000000  1.0
  La3+  La1  1  0.12500000  0.93750000  0.75000000  1.0
  La3+  La1  1  0.25000000  0.18750000  0.62500000  1.0
  La3+  La1  1  0.25000000  0.68750000  0.62500000  1.0
  La3+  La1  1  0.75000000  0.06250000  0.87500000  1.0
  La3+  La1  1  0.75000000  0.56250000  0.87500000  1.0
  La3+  La1  1  0.87500000  0.12500000  0.62500000  1.0
  La3+  La1  1  0.87500000  0.62500000  0.62500000  1.0
  La3+  La1  1  0.62500000  0.37500000  0.87500000  1.0
  La3+  La1  1  0.62500000  0.87500000  0.87500000  1.0
  La3+  La1  1  0.62500000  0.18750000  0.75000000  1.0
  La3+  La1  1  0.62500000  0.68750000  0.75000000  1.0
  La3+  La1  1  0.87500000  0.06250000  0.25000000  1.0
  La3+  La1  1  0.87500000  0.56250000  0.25000000  1.0
  Zr4+  Zr1  1  0.00000000  0.00000000  0.50000000  1.0
  Zr4+  Zr1  1  0.00000000  0.50000000  0.50000000  1.0
  Zr4+  Zr1  1  0.50000000  0.25000000  0.50000000  1.0
  Zr4+  Zr1  1  0.50000000  0.75000000  0.50000000  1.0
  Zr4+  Zr1  1  0.00000000  0.25000000  0.00000000  1.0
  Zr4+  Zr1  1  0.00000000  0.75000000  0.00000000  1.0
  Zr4+  Zr1  1  0.50000000  0.00000000  0.00000000  1.0
  Zr4+  Zr1  1  0.50000000  0.50000000  0.00000000  1.0
  Zr4+  Zr1  1  0.00000000  0.25000000  0.50000000  1.0
  Zr4+  Zr1  1  0.00000000  0.75000000  0.50000000  1.0
  Zr4+  Zr1  1  0.50000000  0.00000000  0.50000000  1.0
  Zr4+  Zr1  1  0.50000000  0.50000000  0.50000000  1.0
  Zr4+  Zr1  1  0.50000000  0.25000000  0.00000000  1.0
  Zr4+  Zr1  1  0.50000000  0.75000000  0.00000000  1.0
  Zr4+  Zr1  1  0.00000000  0.00000000  0.00000000  1.0
  Zr4+  Zr1  1  0.00000000  0.50000000  0.00000000  1.0
  Al3+  Al45  1  0.37500000  0.37500000  0.62500000  1.0
  Al3+  Al45  1  0.37500000  0.87500000  0.62500000  1.0
  O2-  O1  1  0.90300000  0.44063000  0.58566000  1.0
  O2-  O1  1  0.90300000  0.94063000  0.58566000  1.0
  O2-  O1  1  0.59700000  0.34133000  0.47826000  1.0
  O2-  O1  1  0.59700000  0.84133000  0.47826000  1.0
  O2-  O1  1  0.20440000  0.30937000  0.02174000  1.0
  O2-  O1  1  0.20440000  0.80937000  0.02174000  1.0
  O2-  O1  1  0.29560000  0.40867000  0.91434000  1.0
  O2-  O1  1  0.29560000  0.90867000  0.91434000  1.0
  O2-  O1  1  0.02174000  0.35220000  0.11874000  1.0
  O2-  O1  1  0.02174000  0.85220000  0.11874000  1.0
  O2-  O1  1  0.91434000  0.39780000  0.31734000  1.0
  O2-  O1  1  0.91434000  0.89780000  0.31734000  1.0
  O2-  O1  1  0.58566000  0.20150000  0.38126000  1.0
  O2-  O1  1  0.58566000  0.70150000  0.38126000  1.0
  O2-  O1  1  0.47826000  0.04850000  0.18266000  1.0
  O2-  O1  1  0.47826000  0.54850000  0.18266000  1.0
  O2-  O1  1  0.31734000  0.20717000  0.29560000  1.0
  O2-  O1  1  0.31734000  0.70717000  0.29560000  1.0
  O2-  O1  1  0.11874000  0.26087000  0.20440000  1.0
  O2-  O1  1  0.11874000  0.76087000  0.20440000  1.0
  O2-  O1  1  0.18266000  0.48913000  0.59700000  1.0
  O2-  O1  1  0.18266000  0.98913000  0.59700000  1.0
  O2-  O1  1  0.38126000  0.04283000  0.90300000  1.0
  O2-  O1  1  0.38126000  0.54283000  0.90300000  1.0
  O2-  O1  1  0.09700000  0.05937000  0.41434000  1.0
  O2-  O1  1  0.09700000  0.55937000  0.41434000  1.0
  O2-  O1  1  0.40300000  0.15867000  0.52174000  1.0
  O2-  O1  1  0.40300000  0.65867000  0.52174000  1.0
  O2-  O1  1  0.79560000  0.19063000  0.97826000  1.0
  O2-  O1  1  0.79560000  0.69063000  0.97826000  1.0
  O2-  O1  1  0.70440000  0.09133000  0.08566000  1.0
  O2-  O1  1  0.70440000  0.59133000  0.08566000  1.0
  O2-  O1  1  0.97826000  0.14780000  0.88126000  1.0
  O2-  O1  1  0.97826000  0.64780000  0.88126000  1.0
  O2-  O1  1  0.08566000  0.10220000  0.68266000  1.0
  O2-  O1  1  0.08566000  0.60220000  0.68266000  1.0
  O2-  O1  1  0.41434000  0.29850000  0.61874000  1.0
  O2-  O1  1  0.41434000  0.79850000  0.61874000  1.0
  O2-  O1  1  0.52174000  0.45150000  0.81734000  1.0
  O2-  O1  1  0.52174000  0.95150000  0.81734000  1.0
  O2-  O1  1  0.68266000  0.29283000  0.70440000  1.0
  O2-  O1  1  0.68266000  0.79283000  0.70440000  1.0
  O2-  O1  1  0.88126000  0.23913000  0.79560000  1.0
  O2-  O1  1  0.88126000  0.73913000  0.79560000  1.0
  O2-  O1  1  0.81734000  0.01087000  0.40300000  1.0
  O2-  O1  1  0.81734000  0.51087000  0.40300000  1.0
  O2-  O1  1  0.61874000  0.45717000  0.09700000  1.0
  O2-  O1  1  0.61874000  0.95717000  0.09700000  1.0
  O2-  O1  1  0.81734000  0.14780000  0.41434000  1.0
  O2-  O1  1  0.81734000  0.64780000  0.41434000  1.0
  O2-  O1  1  0.61874000  0.10220000  0.52174000  1.0
  O2-  O1  1  0.61874000  0.60220000  0.52174000  1.0
  O2-  O1  1  0.68266000  0.29850000  0.97826000  1.0
  O2-  O1  1  0.68266000  0.79850000  0.97826000  1.0
  O2-  O1  1  0.88126000  0.45150000  0.08566000  1.0
  O2-  O1  1  0.88126000  0.95150000  0.08566000  1.0
  O2-  O1  1  0.40300000  0.29283000  0.88126000  1.0
  O2-  O1  1  0.40300000  0.79283000  0.88126000  1.0
  O2-  O1  1  0.09700000  0.23913000  0.68266000  1.0
  O2-  O1  1  0.09700000  0.73913000  0.68266000  1.0
  O2-  O1  1  0.70440000  0.01087000  0.61874000  1.0
  O2-  O1  1  0.70440000  0.51087000  0.61874000  1.0
  O2-  O1  1  0.79560000  0.45717000  0.81734000  1.0
  O2-  O1  1  0.79560000  0.95717000  0.81734000  1.0
  O2-  O1  1  0.52174000  0.05937000  0.70440000  1.0
  O2-  O1  1  0.52174000  0.55937000  0.70440000  1.0
  O2-  O1  1  0.41434000  0.15867000  0.79560000  1.0
  O2-  O1  1  0.41434000  0.65867000  0.79560000  1.0
  O2-  O1  1  0.08566000  0.19063000  0.40300000  1.0
  O2-  O1  1  0.08566000  0.69063000  0.40300000  1.0
  O2-  O1  1  0.97826000  0.09133000  0.09700000  1.0
  O2-  O1  1  0.97826000  0.59133000  0.09700000  1.0
  O2-  O1  1  0.18266000  0.35220000  0.58566000  1.0
  O2-  O1  1  0.18266000  0.85220000  0.58566000  1.0
  O2-  O1  1  0.38126000  0.39780000  0.47826000  1.0
  O2-  O1  1  0.38126000  0.89780000  0.47826000  1.0
  O2-  O1  1  0.31734000  0.20150000  0.02174000  1.0
  O2-  O1  1  0.31734000  0.70150000  0.02174000  1.0
  O2-  O1  1  0.11874000  0.04850000  0.91434000  1.0
  O2-  O1  1  0.11874000  0.54850000  0.91434000  1.0
  O2-  O1  1  0.59700000  0.20717000  0.11874000  1.0
  O2-  O1  1  0.59700000  0.70717000  0.11874000  1.0
  O2-  O1  1  0.90300000  0.26087000  0.31734000  1.0
  O2-  O1  1  0.90300000  0.76087000  0.31734000  1.0
  O2-  O1  1  0.29560000  0.48913000  0.38126000  1.0
  O2-  O1  1  0.29560000  0.98913000  0.38126000  1.0
  O2-  O1  1  0.20440000  0.04283000  0.18266000  1.0
  O2-  O1  1  0.20440000  0.54283000  0.18266000  1.0
  O2-  O1  1  0.47826000  0.44063000  0.29560000  1.0
  O2-  O1  1  0.47826000  0.94063000  0.29560000  1.0
  O2-  O1  1  0.58566000  0.34133000  0.20440000  1.0
  O2-  O1  1  0.58566000  0.84133000  0.20440000  1.0
  O2-  O1  1  0.91434000  0.30937000  0.59700000  1.0
  O2-  O1  1  0.91434000  0.80937000  0.59700000  1.0
  O2-  O1  1  0.02174000  0.40867000  0.90300000  1.0
  O2-  O1  1  0.02174000  0.90867000  0.90300000  1.0
