# generated using pymatgen
data_Li23La12Zr6Ta2O48
_symmetry_space_group_name_H-M   'P 1'
_cell_length_a   11.19831469
_cell_length_b   11.19831469
_cell_length_c   22.39662938
_cell_angle_alpha   109.47122063
_cell_angle_beta   109.47122063
_cell_angle_gamma   109.47122063
_symmetry_Int_Tables_number   1
_chemical_formula_structural   Li23La12Zr6Ta2O48
_chemical_formula_sum   'Li46 La24 Zr12 Ta4 O96'
_cell_volume   2162.05186540
_cell_formula_units_Z   2
loop_
 _symmetry_equiv_pos_site_id
 _symmetry_equiv_pos_as_xyz
  1  'x, y, z'
loop_
 _atom_type_symbol
 _atom_type_oxidation_number
  Li+  1.0
  La3+  3.0
  Zr4+  4.0
  Ta5+  5.0
  O2-  -2.0
loop_
 _atom_site_type_symbol
 _atom_site_label
 _atom_site_symmetry_multiplicity
 _atom_site_fract_x
 _atom_site_fract_y
 _atom_site_fract_z
 _atom_site_occupancy
  Li+  Li0  1  0.41040000  0.73420000  0.50910000  1.0
  Li+  Li1  1  0.08960000  0.60780000  0.41190000  1.0
  Li+  Li2  1  0.01820000  0.91040000  0.11710000  1.0
  Li+  Li3  1  0.67620000  0.28400000  0.13290000  1.0
  Li+  Li4  1  0.67620000  0.28400000  0.63290000  1.0
  Li+  Li5  1  0.89220000  0.67620000  0.95520000  1.0
  Li+  Li6  1  0.73420000  0.82380000  0.10800000  1.0
  Li+  Li7  1  0.76580000  0.48180000  0.79480000  1.0
  Li+  Li8  1  0.21600000  0.23420000  0.66190000  1.0
  Li+  Li9  1  0.58960000  0.26580000  0.99090000  1.0
  Li+  Li10  1  0.91040000  0.39220000  0.58810000  1.0
  Li+  Li11  1  0.28400000  0.10780000  0.25910000  1.0
  Li+  Li12  1  0.51820000  0.78400000  0.30390000  1.0
  Li+  Li13  1  0.51820000  0.78400000  0.80390000  1.0
  Li+  Li14  1  0.17620000  0.41040000  0.44610000  1.0
  Li+  Li15  1  0.17620000  0.41040000  0.94610000  1.0
  Li+  Li16  1  0.51820000  0.23420000  0.45520000  1.0
  Li+  Li17  1  0.98180000  0.39220000  0.10800000  1.0
  Li+  Li18  1  0.98180000  0.39220000  0.60800000  1.0
  Li+  Li19  1  0.60780000  0.08960000  0.16190000  1.0
  Li+  Li20  1  0.89220000  0.71600000  0.99090000  1.0
  Li+  Li21  1  0.76580000  0.78400000  0.58810000  1.0
  Li+  Li22  1  0.73420000  0.41040000  0.25910000  1.0
  Li+  Li23  1  0.28400000  0.67620000  0.38290000  1.0
  Li+  Li24  1  0.91040000  0.01820000  0.86710000  1.0
  Li+  Li25  1  0.21600000  0.48180000  0.44610000  1.0
  Li+  Li26  1  0.48180000  0.76580000  0.04480000  1.0
  Li+  Li27  1  0.82380000  0.73420000  0.35800000  1.0
  Li+  Li28  1  0.01820000  0.60780000  0.39200000  1.0
  Li+  Li29  1  0.01820000  0.60780000  0.89200000  1.0
  Li+  Li30  1  0.39220000  0.91040000  0.33810000  1.0
  Li+  Li31  1  0.39220000  0.91040000  0.83810000  1.0
  Li+  Li32  1  0.23420000  0.21600000  0.41190000  1.0
  Li+  Li33  1  0.08960000  0.98180000  0.63290000  1.0
  Li+  Li34  1  0.41040000  0.17620000  0.69610000  1.0
  Li+  Li35  1  0.78400000  0.51820000  0.05390000  1.0
  Li+  Li36  1  0.75000000  0.37500000  0.56250000  1.0
  Li+  Li37  1  0.25000000  0.12500000  0.68750000  1.0
  Li+  Li38  1  0.12500000  0.25000000  0.43750000  1.0
  Li+  Li39  1  0.62500000  0.87500000  0.62500000  1.0
  Li+  Li40  1  0.25000000  0.62500000  0.93750000  1.0
  Li+  Li41  1  0.75000000  0.87500000  0.31250000  1.0
  Li+  Li42  1  0.75000000  0.87500000  0.81250000  1.0
  Li+  Li43  1  0.62500000  0.25000000  0.68750000  1.0
  Li+  Li44  1  0.37500000  0.12500000  0.87500000  1.0
  Li+  Li45  1  0.12500000  0.37500000  0.62500000  1.0
  La3+  La1  1  0.75000000  0.62500000  0.18750000  1.0
  La3+  La1  1  0.75000000  0.62500000  0.68750000  1.0
  La3+  La1  1  0.25000000  0.87500000  0.06250000  1.0
  La3+  La1  1  0.25000000  0.87500000  0.56250000  1.0
  La3+  La1  1  0.12500000  0.75000000  0.18750000  1.0
  La3+  La1  1  0.12500000  0.75000000  0.68750000  1.0
  La3+  La1  1  0.37500000  0.25000000  0.06250000  1.0
  La3+  La1  1  0.37500000  0.25000000  0.56250000  1.0
  La3+  La1  1  0.37500000  0.62500000  0.12500000  1.0
  La3+  La1  1  0.37500000  0.62500000  0.62500000  1.0
  La3+  La1  1  0.12500000  0.87500000  0.37500000  1.0
  La3+  La1  1  0.12500000  0.87500000  0.87500000  1.0
  La3+  La1  1  0.25000000  0.37500000  0.31250000  1.0
  La3+  La1  1  0.25000000  0.37500000  0.81250000  1.0
  La3+  La1  1  0.75000000  0.12500000  0.43750000  1.0
  La3+  La1  1  0.75000000  0.12500000  0.93750000  1.0
  La3+  La1  1  0.87500000  0.25000000  0.31250000  1.0
  La3+  La1  1  0.87500000  0.25000000  0.81250000  1.0
  La3+  La1  1  0.62500000  0.75000000  0.43750000  1.0
  La3+  La1  1  0.62500000  0.75000000  0.93750000  1.0
  La3+  La1  1  0.62500000  0.37500000  0.37500000  1.0
  La3+  La1  1  0.62500000  0.37500000  0.87500000  1.0
  La3+  La1  1  0.87500000  0.12500000  0.12500000  1.0
  La3+  La1  1  0.87500000  0.12500000  0.62500000  1.0
  Zr4+  Zr70  1  0.00000000  0.00000000  0.25000000  1.0
  Zr4+  Zr71  1  0.00000000  0.00000000  0.75000000  1.0
  Zr4+  Zr72  1  0.50000000  0.50000000  0.75000000  1.0
  Zr4+  Zr73  1  0.00000000  0.50000000  0.00000000  1.0
  Zr4+  Zr74  1  0.00000000  0.50000000  0.50000000  1.0
  Zr4+  Zr75  1  0.50000000  0.00000000  0.50000000  1.0
  Zr4+  Zr76  1  0.00000000  0.50000000  0.75000000  1.0
  Zr4+  Zr77  1  0.50000000  0.00000000  0.25000000  1.0
  Zr4+  Zr78  1  0.50000000  0.00000000  0.75000000  1.0
  Zr4+  Zr79  1  0.50000000  0.50000000  0.00000000  1.0
  Zr4+  Zr80  1  0.50000000  0.50000000  0.50000000  1.0
  Zr4+  Zr81  1  0.00000000  0.00000000  0.50000000  1.0
  Ta5+  Ta82  1  0.50000000  0.50000000  0.25000000  1.0
  Ta5+  Ta83  1  0.50000000  0.00000000  0.00000000  1.0
  Ta5+  Ta84  1  0.00000000  0.50000000  0.25000000  1.0
  Ta5+  Ta85  1  0.00000000  0.00000000  0.00000000  1.0
  O2-  O1  1  0.90480000  0.88290000  0.29265000  1.0
  O2-  O1  1  0.90480000  0.88290000  0.79265000  1.0
  O2-  O1  1  0.59520000  0.68050000  0.23905000  1.0
  O2-  O1  1  0.59520000  0.68050000  0.73905000  1.0
  O2-  O1  1  0.20240000  0.61710000  0.01095000  1.0
  O2-  O1  1  0.20240000  0.61710000  0.51095000  1.0
  O2-  O1  1  0.29760000  0.81950000  0.45735000  1.0
  O2-  O1  1  0.29760000  0.81950000  0.95735000  1.0
  O2-  O1  1  0.02190000  0.70240000  0.05855000  1.0
  O2-  O1  1  0.02190000  0.70240000  0.55855000  1.0
  O2-  O1  1  0.91470000  0.79760000  0.15975000  1.0
  O2-  O1  1  0.91470000  0.79760000  0.65975000  1.0
  O2-  O1  1  0.58530000  0.40480000  0.19145000  1.0
  O2-  O1  1  0.58530000  0.40480000  0.69145000  1.0
  O2-  O1  1  0.47810000  0.09520000  0.09025000  1.0
  O2-  O1  1  0.47810000  0.09520000  0.59025000  1.0
  O2-  O1  1  0.31950000  0.41470000  0.14880000  1.0
  O2-  O1  1  0.31950000  0.41470000  0.64880000  1.0
  O2-  O1  1  0.11710000  0.52190000  0.10120000  1.0
  O2-  O1  1  0.11710000  0.52190000  0.60120000  1.0
  O2-  O1  1  0.18050000  0.97810000  0.29760000  1.0
  O2-  O1  1  0.18050000  0.97810000  0.79760000  1.0
  O2-  O1  1  0.38290000  0.08530000  0.45240000  1.0
  O2-  O1  1  0.38290000  0.08530000  0.95240000  1.0
  O2-  O1  1  0.09520000  0.11710000  0.20735000  1.0
  O2-  O1  1  0.09520000  0.11710000  0.70735000  1.0
  O2-  O1  1  0.40480000  0.31950000  0.26095000  1.0
  O2-  O1  1  0.40480000  0.31950000  0.76095000  1.0
  O2-  O1  1  0.79760000  0.38290000  0.48905000  1.0
  O2-  O1  1  0.79760000  0.38290000  0.98905000  1.0
  O2-  O1  1  0.70240000  0.18050000  0.04265000  1.0
  O2-  O1  1  0.70240000  0.18050000  0.54265000  1.0
  O2-  O1  1  0.97810000  0.29760000  0.44145000  1.0
  O2-  O1  1  0.97810000  0.29760000  0.94145000  1.0
  O2-  O1  1  0.08530000  0.20240000  0.34025000  1.0
  O2-  O1  1  0.08530000  0.20240000  0.84025000  1.0
  O2-  O1  1  0.41470000  0.59520000  0.30855000  1.0
  O2-  O1  1  0.41470000  0.59520000  0.80855000  1.0
  O2-  O1  1  0.52190000  0.90480000  0.40975000  1.0
  O2-  O1  1  0.52190000  0.90480000  0.90975000  1.0
  O2-  O1  1  0.68050000  0.58530000  0.35120000  1.0
  O2-  O1  1  0.68050000  0.58530000  0.85120000  1.0
  O2-  O1  1  0.88290000  0.47810000  0.39880000  1.0
  O2-  O1  1  0.88290000  0.47810000  0.89880000  1.0
  O2-  O1  1  0.81950000  0.02190000  0.20240000  1.0
  O2-  O1  1  0.81950000  0.02190000  0.70240000  1.0
  O2-  O1  1  0.61710000  0.91470000  0.04760000  1.0
  O2-  O1  1  0.61710000  0.91470000  0.54760000  1.0
  O2-  O1  1  0.81950000  0.29760000  0.20735000  1.0
  O2-  O1  1  0.81950000  0.29760000  0.70735000  1.0
  O2-  O1  1  0.61710000  0.20240000  0.26095000  1.0
  O2-  O1  1  0.61710000  0.20240000  0.76095000  1.0
  O2-  O1  1  0.68050000  0.59520000  0.48905000  1.0
  O2-  O1  1  0.68050000  0.59520000  0.98905000  1.0
  O2-  O1  1  0.88290000  0.90480000  0.04265000  1.0
  O2-  O1  1  0.88290000  0.90480000  0.54265000  1.0
  O2-  O1  1  0.40480000  0.58530000  0.44145000  1.0
  O2-  O1  1  0.40480000  0.58530000  0.94145000  1.0
  O2-  O1  1  0.09520000  0.47810000  0.34025000  1.0
  O2-  O1  1  0.09520000  0.47810000  0.84025000  1.0
  O2-  O1  1  0.70240000  0.02190000  0.30855000  1.0
  O2-  O1  1  0.70240000  0.02190000  0.80855000  1.0
  O2-  O1  1  0.79760000  0.91470000  0.40975000  1.0
  O2-  O1  1  0.79760000  0.91470000  0.90975000  1.0
  O2-  O1  1  0.52190000  0.11710000  0.35120000  1.0
  O2-  O1  1  0.52190000  0.11710000  0.85120000  1.0
  O2-  O1  1  0.41470000  0.31950000  0.39880000  1.0
  O2-  O1  1  0.41470000  0.31950000  0.89880000  1.0
  O2-  O1  1  0.08530000  0.38290000  0.20240000  1.0
  O2-  O1  1  0.08530000  0.38290000  0.70240000  1.0
  O2-  O1  1  0.97810000  0.18050000  0.04760000  1.0
  O2-  O1  1  0.97810000  0.18050000  0.54760000  1.0
  O2-  O1  1  0.18050000  0.70240000  0.29265000  1.0
  O2-  O1  1  0.18050000  0.70240000  0.79265000  1.0
  O2-  O1  1  0.38290000  0.79760000  0.23905000  1.0
  O2-  O1  1  0.38290000  0.79760000  0.73905000  1.0
  O2-  O1  1  0.31950000  0.40480000  0.01095000  1.0
  O2-  O1  1  0.31950000  0.40480000  0.51095000  1.0
  O2-  O1  1  0.11710000  0.09520000  0.45735000  1.0
  O2-  O1  1  0.11710000  0.09520000  0.95735000  1.0
  O2-  O1  1  0.59520000  0.41470000  0.05855000  1.0
  O2-  O1  1  0.59520000  0.41470000  0.55855000  1.0
  O2-  O1  1  0.90480000  0.52190000  0.15975000  1.0
  O2-  O1  1  0.90480000  0.52190000  0.65975000  1.0
  O2-  O1  1  0.29760000  0.97810000  0.19145000  1.0
  O2-  O1  1  0.29760000  0.97810000  0.69145000  1.0
  O2-  O1  1  0.20240000  0.08530000  0.09025000  1.0
  O2-  O1  1  0.20240000  0.08530000  0.59025000  1.0
  O2-  O1  1  0.47810000  0.88290000  0.14880000  1.0
  O2-  O1  1  0.47810000  0.88290000  0.64880000  1.0
  O2-  O1  1  0.58530000  0.68050000  0.10120000  1.0
  O2-  O1  1  0.58530000  0.68050000  0.60120000  1.0
  O2-  O1  1  0.91470000  0.61710000  0.29760000  1.0
  O2-  O1  1  0.91470000  0.61710000  0.79760000  1.0
  O2-  O1  1  0.02190000  0.81950000  0.45240000  1.0
  O2-  O1  1  0.02190000  0.81950000  0.95240000  1.0
