# generated using pymatgen
data_Li32Ge2P3(S5I)5
_symmetry_space_group_name_H-M   'P 1'
_cell_length_a   14.46674006
_cell_length_b   36.16685016
_cell_length_c   7.23337003
_cell_angle_alpha   60.00000000
_cell_angle_beta   120.00000000
_cell_angle_gamma   120.00000000
_symmetry_Int_Tables_number   1
_chemical_formula_structural   Li32Ge2P3(S5I)5
_chemical_formula_sum   'Li64 Ge4 P6 S50 I10'
_cell_volume   2676.12903222
_cell_formula_units_Z   2
loop_
 _symmetry_equiv_pos_site_id
 _symmetry_equiv_pos_as_xyz
  1  'x, y, z'
loop_
 _atom_type_symbol
 _atom_type_oxidation_number
  Li+  1.0
  Ge4+  4.0
  P5+  5.0
  S2-  -2.0
  I-  -1.0
loop_
 _atom_site_type_symbol
 _atom_site_label
 _atom_site_symmetry_multiplicity
 _atom_site_fract_x
 _atom_site_fract_y
 _atom_site_fract_z
 _atom_site_occupancy
  Li+  Li0  1  0.24000000  0.90400000  0.73000000  1.0
  Li+  Li1  1  0.51000000  0.70400000  0.27000000  1.0
  Li+  Li2  1  0.23944877  0.79835631  0.72910144  1.0
  Li+  Li3  1  0.73848589  0.99600806  0.73095578  1.0
  Li+  Li4  1  0.74000000  0.79600000  0.73000000  1.0
  Li+  Li5  1  0.00515898  0.69926868  0.72988705  1.0
  Li+  Li6  1  0.51000000  0.50400000  0.73000000  1.0
  Li+  Li7  1  0.51000000  0.30400000  0.73000000  1.0
  Li+  Li8  1  0.01000000  0.59600000  0.27000000  1.0
  Li+  Li9  1  0.51000000  0.79600000  0.27000000  1.0
  Li+  Li10  1  0.73818073  0.99185258  0.27225518  1.0
  Li+  Li11  1  0.74000000  0.39600000  0.27000000  1.0
  Li+  Li12  1  0.74404593  0.19213556  0.27157122  1.0
  Li+  Li13  1  0.19750000  0.68900000  0.72500000  1.0
  Li+  Li14  1  0.19750000  0.48900000  0.72500000  1.0
  Li+  Li15  1  0.19750000  0.08900000  0.72500000  1.0
  Li+  Li16  1  0.69750000  0.68900000  0.72500000  1.0
  Li+  Li17  1  0.69750000  0.28900000  0.72500000  1.0
  Li+  Li18  1  0.69750000  0.08900000  0.72500000  1.0
  Li+  Li19  1  0.01250000  0.52100000  0.19500000  1.0
  Li+  Li20  1  0.01147773  0.31892127  0.19492209  1.0
  Li+  Li21  1  0.51250000  0.92100000  0.19500000  1.0
  Li+  Li22  1  0.27697110  0.59635099  0.72649038  1.0
  Li+  Li23  1  0.27750000  0.39500000  0.72500000  1.0
  Li+  Li24  1  0.27750000  0.19500000  0.72500000  1.0
  Li+  Li25  1  0.77750000  0.99500000  0.72500000  1.0
  Li+  Li26  1  0.77750000  0.79500000  0.72500000  1.0
  Li+  Li27  1  0.77750000  0.59500000  0.72500000  1.0
  Li+  Li28  1  0.77751475  0.39847340  0.72879399  1.0
  Li+  Li29  1  0.27750000  0.32100000  0.72500000  1.0
  Li+  Li30  1  0.27750000  0.12100000  0.72500000  1.0
  Li+  Li31  1  0.77750000  0.92100000  0.72500000  1.0
  Li+  Li32  1  0.77750000  0.72100000  0.72500000  1.0
  Li+  Li33  1  0.77750000  0.52100000  0.72500000  1.0
  Li+  Li34  1  0.01250000  0.48900000  0.72500000  1.0
  Li+  Li35  1  0.51250000  0.88900000  0.72500000  1.0
  Li+  Li36  1  0.51003940  0.68756908  0.72644676  1.0
  Li+  Li37  1  0.01250000  0.12100000  0.72500000  1.0
  Li+  Li38  1  0.51339440  0.31991954  0.72363525  1.0
  Li+  Li39  1  0.01250000  0.88900000  0.35500000  1.0
  Li+  Li40  1  0.01250000  0.48900000  0.35500000  1.0
  Li+  Li41  1  0.01250000  0.28900000  0.35500000  1.0
  Li+  Li42  1  0.01263472  0.09254815  0.35622298  1.0
  Li+  Li43  1  0.51250000  0.48900000  0.35500000  1.0
  Li+  Li44  1  0.51250000  0.08900000  0.35500000  1.0
  Li+  Li45  1  0.01250000  0.39500000  0.35500000  1.0
  Li+  Li46  1  0.51250000  0.99500000  0.35500000  1.0
  Li+  Li47  1  0.51250000  0.79500000  0.35500000  1.0
  Li+  Li48  1  0.51450307  0.59886225  0.35644594  1.0
  Li+  Li49  1  0.19750000  0.79500000  0.72500000  1.0
  Li+  Li50  1  0.19750000  0.19500000  0.72500000  1.0
  Li+  Li51  1  0.69750000  0.79500000  0.72500000  1.0
  Li+  Li52  1  0.69550412  0.39340124  0.72853774  1.0
  Li+  Li53  1  0.69750000  0.19500000  0.72500000  1.0
  Li+  Li54  1  0.00693386  0.79562460  0.19182374  1.0
  Li+  Li55  1  0.51250000  0.99500000  0.19500000  1.0
  Li+  Li56  1  0.51250000  0.59500000  0.19500000  1.0
  Li+  Li57  1  0.51379213  0.19774851  0.19317108  1.0
  Li+  Li58  1  0.19301210  0.99593955  0.19444670  1.0
  Li+  Li59  1  0.19443152  0.79504514  0.19571738  1.0
  Li+  Li60  1  0.19918814  0.59260145  0.19716265  1.0
  Li+  Li61  1  0.19750000  0.39500000  0.19500000  1.0
  Li+  Li62  1  0.19750000  0.19500000  0.19500000  1.0
  Li+  Li63  1  0.69718803  0.39808627  0.19109217  1.0
  Ge4+  Ge64  1  0.25000000  0.90000000  0.25000000  1.0
  Ge4+  Ge65  1  0.25000000  0.30000000  0.25000000  1.0
  Ge4+  Ge66  1  0.25000000  0.10000000  0.25000000  1.0
  Ge4+  Ge67  1  0.75000000  0.70000000  0.25000000  1.0
  P5+  P68  1  0.24984367  0.69781352  0.25023628  1.0
  P5+  P69  1  0.25000000  0.50000000  0.25000000  1.0
  P5+  P70  1  0.75422770  0.89884198  0.25323089  1.0
  P5+  P71  1  0.75000000  0.50000000  0.25000000  1.0
  P5+  P72  1  0.75000000  0.30000000  0.25000000  1.0
  P5+  P73  1  0.75000000  0.10000000  0.25000000  1.0
  S2-  S74  1  0.12239211  0.94544114  0.50007879  1.0
  S2-  S75  1  0.12500000  0.75000000  0.50000000  1.0
  S2-  S76  1  0.12473723  0.55350866  0.49419036  1.0
  S2-  S77  1  0.12500000  0.35000000  0.50000000  1.0
  S2-  S78  1  0.12261314  0.14742479  0.50462161  1.0
  S2-  S79  1  0.62609843  0.94985593  0.50072909  1.0
  S2-  S80  1  0.62500000  0.75000000  0.50000000  1.0
  S2-  S81  1  0.62500000  0.55000000  0.50000000  1.0
  S2-  S82  1  0.62500000  0.35000000  0.50000000  1.0
  S2-  S83  1  0.62500000  0.15000000  0.50000000  1.0
  S2-  S84  1  0.30985000  0.87606000  0.60910000  1.0
  S2-  S85  1  0.30985000  0.67606000  0.60910000  1.0
  S2-  S86  1  0.30985000  0.47606000  0.60910000  1.0
  S2-  S87  1  0.30985000  0.27606000  0.60910000  1.0
  S2-  S88  1  0.30985000  0.07606000  0.60910000  1.0
  S2-  S89  1  0.81106467  0.87434831  0.61386983  1.0
  S2-  S90  1  0.80985000  0.67606000  0.60910000  1.0
  S2-  S91  1  0.80985000  0.47606000  0.60910000  1.0
  S2-  S92  1  0.80985000  0.27606000  0.60910000  1.0
  S2-  S93  1  0.80985000  0.07606000  0.60910000  1.0
  S2-  S94  1  0.30985000  0.87606000  0.13030000  1.0
  S2-  S95  1  0.30985000  0.67606000  0.13030000  1.0
  S2-  S96  1  0.30985000  0.47606000  0.13030000  1.0
  S2-  S97  1  0.31096147  0.27282940  0.13086241  1.0
  S2-  S98  1  0.30985000  0.07606000  0.13030000  1.0
  S2-  S99  1  0.80985000  0.87606000  0.13030000  1.0
  S2-  S100  1  0.80985000  0.67606000  0.13030000  1.0
  S2-  S101  1  0.80985000  0.47606000  0.13030000  1.0
  S2-  S102  1  0.80985000  0.27606000  0.13030000  1.0
  S2-  S103  1  0.80655585  0.07648389  0.12911218  1.0
  S2-  S104  1  0.30985000  0.97182000  0.13030000  1.0
  S2-  S105  1  0.30985000  0.77182000  0.13030000  1.0
  S2-  S106  1  0.30985000  0.57182000  0.13030000  1.0
  S2-  S107  1  0.30985000  0.37182000  0.13030000  1.0
  S2-  S108  1  0.30985000  0.17182000  0.13030000  1.0
  S2-  S109  1  0.81102744  0.96730037  0.13198154  1.0
  S2-  S110  1  0.80985000  0.77182000  0.13030000  1.0
  S2-  S111  1  0.81107263  0.56832697  0.12948874  1.0
  S2-  S112  1  0.80985000  0.37182000  0.13030000  1.0
  S2-  S113  1  0.80985000  0.17182000  0.13030000  1.0
  S2-  S114  1  0.07045000  0.87606000  0.13030000  1.0
  S2-  S115  1  0.07045000  0.67606000  0.13030000  1.0
  S2-  S116  1  0.07045000  0.47606000  0.13030000  1.0
  S2-  S117  1  0.07045000  0.27606000  0.13030000  1.0
  S2-  S118  1  0.07045000  0.07606000  0.13030000  1.0
  S2-  S119  1  0.57045000  0.87606000  0.13030000  1.0
  S2-  S120  1  0.57182355  0.67360194  0.13103019  1.0
  S2-  S121  1  0.57045000  0.47606000  0.13030000  1.0
  S2-  S122  1  0.57045000  0.27606000  0.13030000  1.0
  S2-  S123  1  0.57045000  0.07606000  0.13030000  1.0
  I-  I124  1  0.00000000  0.00000000  0.75000000  1.0
  I-  I125  1  0.00000000  0.80000000  0.75000000  1.0
  I-  I126  1  0.00000000  0.60000000  0.75000000  1.0
  I-  I127  1  0.00000000  0.40000000  0.75000000  1.0
  I-  I128  1  0.00024744  0.20149432  0.74964953  1.0
  I-  I129  1  0.50000000  0.00000000  0.75000000  1.0
  I-  I130  1  0.50205141  0.80159156  0.75268302  1.0
  I-  I131  1  0.50000000  0.60000000  0.75000000  1.0
  I-  I132  1  0.50000000  0.40000000  0.75000000  1.0
  I-  I133  1  0.50000000  0.20000000  0.75000000  1.0
