# generated using pymatgen
data_Li32Ge2P3(S5I)5
_symmetry_space_group_name_H-M   'P 1'
_cell_length_a   14.46674006
_cell_length_b   7.23337003
_cell_length_c   36.16685016
_cell_angle_alpha   60.00000000
_cell_angle_beta   60.00000000
_cell_angle_gamma   60.00000000
_symmetry_Int_Tables_number   1
_chemical_formula_structural   Li32Ge2P3(S5I)5
_chemical_formula_sum   'Li64 Ge4 P6 S50 I10'
_cell_volume   2676.12903222
_cell_formula_units_Z   2
loop_
 _symmetry_equiv_pos_site_id
 _symmetry_equiv_pos_as_xyz
  1  'x, y, z'
loop_
 _atom_type_symbol
 _atom_type_oxidation_number
  Li+  1.0
  Ge4+  4.0
  P5+  5.0
  S2-  -2.0
  I-  -1.0
loop_
 _atom_site_type_symbol
 _atom_site_label
 _atom_site_symmetry_multiplicity
 _atom_site_fract_x
 _atom_site_fract_y
 _atom_site_fract_z
 _atom_site_occupancy
  Li+  Li0  1  0.24000000  0.02000000  0.09600000  1.0
  Li+  Li1  1  0.51000000  0.48000000  0.29600000  1.0
  Li+  Li2  1  0.24000000  0.02000000  0.20400000  1.0
  Li+  Li3  1  0.74000000  0.02000000  0.00400000  1.0
  Li+  Li4  1  0.74000000  0.02000000  0.20400000  1.0
  Li+  Li5  1  0.01000000  0.02000000  0.29600000  1.0
  Li+  Li6  1  0.51000000  0.02000000  0.49600000  1.0
  Li+  Li7  1  0.51000000  0.02000000  0.69600000  1.0
  Li+  Li8  1  0.01000000  0.48000000  0.40400000  1.0
  Li+  Li9  1  0.51000000  0.48000000  0.20400000  1.0
  Li+  Li10  1  0.74000000  0.48000000  0.00400000  1.0
  Li+  Li11  1  0.74000000  0.48000000  0.60400000  1.0
  Li+  Li12  1  0.74000000  0.48000000  0.80400000  1.0
  Li+  Li13  1  0.19750000  0.02500000  0.31100000  1.0
  Li+  Li14  1  0.19750000  0.02500000  0.51100000  1.0
  Li+  Li15  1  0.19750000  0.02500000  0.91100000  1.0
  Li+  Li16  1  0.69750000  0.02500000  0.31100000  1.0
  Li+  Li17  1  0.69750000  0.02500000  0.71100000  1.0
  Li+  Li18  1  0.69750000  0.02500000  0.91100000  1.0
  Li+  Li19  1  0.01250000  0.55500000  0.47900000  1.0
  Li+  Li20  1  0.01250000  0.55500000  0.67900000  1.0
  Li+  Li21  1  0.51250000  0.55500000  0.07900000  1.0
  Li+  Li22  1  0.27750000  0.02500000  0.40500000  1.0
  Li+  Li23  1  0.27750000  0.02500000  0.60500000  1.0
  Li+  Li24  1  0.27750000  0.02500000  0.80500000  1.0
  Li+  Li25  1  0.77750000  0.02500000  0.00500000  1.0
  Li+  Li26  1  0.77750000  0.02500000  0.20500000  1.0
  Li+  Li27  1  0.77750000  0.02500000  0.40500000  1.0
  Li+  Li28  1  0.77750000  0.02500000  0.60500000  1.0
  Li+  Li29  1  0.27750000  0.02500000  0.67900000  1.0
  Li+  Li30  1  0.27750000  0.02500000  0.87900000  1.0
  Li+  Li31  1  0.77750000  0.02500000  0.07900000  1.0
  Li+  Li32  1  0.77750000  0.02500000  0.27900000  1.0
  Li+  Li33  1  0.77750000  0.02500000  0.47900000  1.0
  Li+  Li34  1  0.01250000  0.02500000  0.51100000  1.0
  Li+  Li35  1  0.51250000  0.02500000  0.11100000  1.0
  Li+  Li36  1  0.51250000  0.02500000  0.31100000  1.0
  Li+  Li37  1  0.01250000  0.02500000  0.87900000  1.0
  Li+  Li38  1  0.51250000  0.02500000  0.67900000  1.0
  Li+  Li39  1  0.01250000  0.39500000  0.11100000  1.0
  Li+  Li40  1  0.01250000  0.39500000  0.51100000  1.0
  Li+  Li41  1  0.01250000  0.39500000  0.71100000  1.0
  Li+  Li42  1  0.01250000  0.39500000  0.91100000  1.0
  Li+  Li43  1  0.51250000  0.39500000  0.51100000  1.0
  Li+  Li44  1  0.51250000  0.39500000  0.91100000  1.0
  Li+  Li45  1  0.01250000  0.39500000  0.60500000  1.0
  Li+  Li46  1  0.51250000  0.39500000  0.00500000  1.0
  Li+  Li47  1  0.51250000  0.39500000  0.20500000  1.0
  Li+  Li48  1  0.51250000  0.39500000  0.40500000  1.0
  Li+  Li49  1  0.19750000  0.02500000  0.20500000  1.0
  Li+  Li50  1  0.19750000  0.02500000  0.80500000  1.0
  Li+  Li51  1  0.69750000  0.02500000  0.20500000  1.0
  Li+  Li52  1  0.69750000  0.02500000  0.60500000  1.0
  Li+  Li53  1  0.69750000  0.02500000  0.80500000  1.0
  Li+  Li54  1  0.01250000  0.55500000  0.20500000  1.0
  Li+  Li55  1  0.51250000  0.55500000  0.00500000  1.0
  Li+  Li56  1  0.51250000  0.55500000  0.40500000  1.0
  Li+  Li57  1  0.51250000  0.55500000  0.80500000  1.0
  Li+  Li58  1  0.19750000  0.55500000  0.00500000  1.0
  Li+  Li59  1  0.19750000  0.55500000  0.20500000  1.0
  Li+  Li60  1  0.19750000  0.55500000  0.40500000  1.0
  Li+  Li61  1  0.19750000  0.55500000  0.60500000  1.0
  Li+  Li62  1  0.19750000  0.55500000  0.80500000  1.0
  Li+  Li63  1  0.69750000  0.55500000  0.60500000  1.0
  Ge4+  Ge64  1  0.25000000  0.50000000  0.10000000  1.0
  Ge4+  Ge65  1  0.25000000  0.50000000  0.70000000  1.0
  Ge4+  Ge66  1  0.25000000  0.50000000  0.90000000  1.0
  Ge4+  Ge67  1  0.75000000  0.50000000  0.30000000  1.0
  P5+  P68  1  0.25000000  0.50000000  0.30000000  1.0
  P5+  P69  1  0.25000000  0.50000000  0.50000000  1.0
  P5+  P70  1  0.75000000  0.50000000  0.10000000  1.0
  P5+  P71  1  0.75000000  0.50000000  0.50000000  1.0
  P5+  P72  1  0.75000000  0.50000000  0.70000000  1.0
  P5+  P73  1  0.75000000  0.50000000  0.90000000  1.0
  S2-  S1  1  0.12500000  0.25000000  0.05000000  1.0
  S2-  S1  1  0.12500000  0.25000000  0.25000000  1.0
  S2-  S1  1  0.12500000  0.25000000  0.45000000  1.0
  S2-  S1  1  0.12500000  0.25000000  0.65000000  1.0
  S2-  S1  1  0.12500000  0.25000000  0.85000000  1.0
  S2-  S1  1  0.62500000  0.25000000  0.05000000  1.0
  S2-  S1  1  0.62500000  0.25000000  0.25000000  1.0
  S2-  S1  1  0.62500000  0.25000000  0.45000000  1.0
  S2-  S1  1  0.62500000  0.25000000  0.65000000  1.0
  S2-  S1  1  0.62500000  0.25000000  0.85000000  1.0
  S2-  S2  1  0.30985000  0.14090000  0.12394000  1.0
  S2-  S2  1  0.30985000  0.14090000  0.32394000  1.0
  S2-  S2  1  0.30985000  0.14090000  0.52394000  1.0
  S2-  S2  1  0.30985000  0.14090000  0.72394000  1.0
  S2-  S2  1  0.30985000  0.14090000  0.92394000  1.0
  S2-  S2  1  0.80985000  0.14090000  0.12394000  1.0
  S2-  S2  1  0.80985000  0.14090000  0.32394000  1.0
  S2-  S2  1  0.80985000  0.14090000  0.52394000  1.0
  S2-  S2  1  0.80985000  0.14090000  0.72394000  1.0
  S2-  S2  1  0.80985000  0.14090000  0.92394000  1.0
  S2-  S2  1  0.30985000  0.61970000  0.12394000  1.0
  S2-  S2  1  0.30985000  0.61970000  0.32394000  1.0
  S2-  S2  1  0.30985000  0.61970000  0.52394000  1.0
  S2-  S2  1  0.30985000  0.61970000  0.72394000  1.0
  S2-  S2  1  0.30985000  0.61970000  0.92394000  1.0
  S2-  S2  1  0.80985000  0.61970000  0.12394000  1.0
  S2-  S2  1  0.80985000  0.61970000  0.32394000  1.0
  S2-  S2  1  0.80985000  0.61970000  0.52394000  1.0
  S2-  S2  1  0.80985000  0.61970000  0.72394000  1.0
  S2-  S2  1  0.80985000  0.61970000  0.92394000  1.0
  S2-  S2  1  0.30985000  0.61970000  0.02818000  1.0
  S2-  S2  1  0.30985000  0.61970000  0.22818000  1.0
  S2-  S2  1  0.30985000  0.61970000  0.42818000  1.0
  S2-  S2  1  0.30985000  0.61970000  0.62818000  1.0
  S2-  S2  1  0.30985000  0.61970000  0.82818000  1.0
  S2-  S2  1  0.80985000  0.61970000  0.02818000  1.0
  S2-  S2  1  0.80985000  0.61970000  0.22818000  1.0
  S2-  S2  1  0.80985000  0.61970000  0.42818000  1.0
  S2-  S2  1  0.80985000  0.61970000  0.62818000  1.0
  S2-  S2  1  0.80985000  0.61970000  0.82818000  1.0
  S2-  S2  1  0.07045000  0.61970000  0.12394000  1.0
  S2-  S2  1  0.07045000  0.61970000  0.32394000  1.0
  S2-  S2  1  0.07045000  0.61970000  0.52394000  1.0
  S2-  S2  1  0.07045000  0.61970000  0.72394000  1.0
  S2-  S2  1  0.07045000  0.61970000  0.92394000  1.0
  S2-  S2  1  0.57045000  0.61970000  0.12394000  1.0
  S2-  S2  1  0.57045000  0.61970000  0.32394000  1.0
  S2-  S2  1  0.57045000  0.61970000  0.52394000  1.0
  S2-  S2  1  0.57045000  0.61970000  0.72394000  1.0
  S2-  S2  1  0.57045000  0.61970000  0.92394000  1.0
  I-  I1  1  0.00000000  0.00000000  0.00000000  1.0
  I-  I1  1  0.00000000  0.00000000  0.20000000  1.0
  I-  I1  1  0.00000000  0.00000000  0.40000000  1.0
  I-  I1  1  0.00000000  0.00000000  0.60000000  1.0
  I-  I1  1  0.00000000  0.00000000  0.80000000  1.0
  I-  I1  1  0.50000000  0.00000000  0.00000000  1.0
  I-  I1  1  0.50000000  0.00000000  0.20000000  1.0
  I-  I1  1  0.50000000  0.00000000  0.40000000  1.0
  I-  I1  1  0.50000000  0.00000000  0.60000000  1.0
  I-  I1  1  0.50000000  0.00000000  0.80000000  1.0
