# generated using pymatgen
data_Li29P5(Se4Br)6
_symmetry_space_group_name_H-M   'P 1'
_cell_length_a   36.62823733
_cell_length_b   14.65129493
_cell_length_c   7.32564747
_cell_angle_alpha   60.00000000
_cell_angle_beta   120.00000000
_cell_angle_gamma   120.00000000
_symmetry_Int_Tables_number   1
_chemical_formula_structural   Li29P5(Se4Br)6
_chemical_formula_sum   'Li58 P10 Se48 Br12'
_cell_volume   2779.86079003
_cell_formula_units_Z   2
loop_
 _symmetry_equiv_pos_site_id
 _symmetry_equiv_pos_as_xyz
  1  'x, y, z'
loop_
 _atom_type_symbol
 _atom_type_oxidation_number
  Li+  1.0
  P5+  5.0
  Se2-  -2.0
  Br-  -1.0
loop_
 _atom_site_type_symbol
 _atom_site_label
 _atom_site_symmetry_multiplicity
 _atom_site_fract_x
 _atom_site_fract_y
 _atom_site_fract_z
 _atom_site_occupancy
  Li+  Li0  1  0.76948814  0.57627798  0.28468511  1.0
  Li+  Li1  1  0.76900000  0.26750000  0.90500000  1.0
  Li+  Li2  1  0.06212933  0.17714383  0.71984918  1.0
  Li+  Li3  1  0.46249255  0.18481363  0.72083805  1.0
  Li+  Li4  1  0.85992000  0.18060000  0.71920000  1.0
  Li+  Li5  1  0.80616000  0.85020000  0.11120000  1.0
  Li+  Li6  1  0.52695435  0.97962378  0.71702936  1.0
  Li+  Li7  1  0.00616000  0.68060000  0.71920000  1.0
  Li+  Li8  1  0.20520454  0.18009086  0.71992953  1.0
  Li+  Li9  1  0.20336581  0.35207366  0.71613194  1.0
  Li+  Li10  1  0.80163632  0.84891573  0.71347452  1.0
  Li+  Li11  1  0.20616000  0.68060000  0.45040000  1.0
  Li+  Li12  1  0.20616000  0.18060000  0.45040000  1.0
  Li+  Li13  1  0.40616000  0.68060000  0.45040000  1.0
  Li+  Li14  1  0.60616000  0.68060000  0.45040000  1.0
  Li+  Li15  1  0.00616000  0.48460000  0.45040000  1.0
  Li+  Li16  1  0.60616000  0.48460000  0.45040000  1.0
  Li+  Li17  1  0.05992000  0.98460000  0.71920000  1.0
  Li+  Li18  1  0.65992000  0.48460000  0.71920000  1.0
  Li+  Li19  1  0.12776000  0.48460000  0.45040000  1.0
  Li+  Li20  1  0.05992000  0.48460000  0.11120000  1.0
  Li+  Li21  1  0.25992000  0.48460000  0.11120000  1.0
  Li+  Li22  1  0.45992000  0.98460000  0.11120000  1.0
  Li+  Li23  1  0.04690000  0.56675000  0.51550000  1.0
  Li+  Li24  1  0.24690000  0.56675000  0.51550000  1.0
  Li+  Li25  1  0.84811812  0.56455504  0.51600998  1.0
  Li+  Li26  1  0.84693355  0.06791199  0.51312042  1.0
  Li+  Li27  1  0.33290000  0.88275000  0.88350000  1.0
  Li+  Li28  1  0.52971181  0.38111653  0.88288154  1.0
  Li+  Li29  1  0.73290000  0.88275000  0.88350000  1.0
  Li+  Li30  1  0.73290000  0.38275000  0.88350000  1.0
  Li+  Li31  1  0.37332416  0.88549919  0.08088877  1.0
  Li+  Li32  1  0.57330000  0.88275000  0.08550000  1.0
  Li+  Li33  1  0.13290000  0.06675000  0.51550000  1.0
  Li+  Li34  1  0.33290000  0.06675000  0.51550000  1.0
  Li+  Li35  1  0.73290000  0.56675000  0.51550000  1.0
  Li+  Li36  1  0.93290000  0.06675000  0.51550000  1.0
  Li+  Li37  1  0.73508937  0.38117106  0.51705405  1.0
  Li+  Li38  1  0.93290000  0.38275000  0.51550000  1.0
  Li+  Li39  1  0.64690000  0.56675000  0.08550000  1.0
  Li+  Li40  1  0.24690000  0.88275000  0.08550000  1.0
  Li+  Li41  1  0.44690000  0.38275000  0.08550000  1.0
  Li+  Li42  1  0.84690000  0.38275000  0.08550000  1.0
  Li+  Li43  1  0.57330000  0.66775000  0.51550000  1.0
  Li+  Li44  1  0.77330000  0.66775000  0.51550000  1.0
  Li+  Li45  1  0.77330000  0.16775000  0.51550000  1.0
  Li+  Li46  1  0.97330000  0.66775000  0.51550000  1.0
  Li+  Li47  1  0.97330000  0.16775000  0.51550000  1.0
  Li+  Li48  1  0.24729764  0.16352110  0.88172932  1.0
  Li+  Li49  1  0.44690000  0.66775000  0.88350000  1.0
  Li+  Li50  1  0.64690000  0.16775000  0.88350000  1.0
  Li+  Li51  1  0.17204993  0.88349242  0.51775112  1.0
  Li+  Li52  1  0.37330000  0.88275000  0.51550000  1.0
  Li+  Li53  1  0.57330000  0.38275000  0.51550000  1.0
  Li+  Li54  1  0.04577620  0.88084200  0.88232596  1.0
  Li+  Li55  1  0.04690000  0.16775000  0.51550000  1.0
  Li+  Li56  1  0.44629619  0.67217330  0.51335581  1.0
  Li+  Li57  1  0.64690000  0.16775000  0.51550000  1.0
  P5+  P58  1  0.10000000  0.75000000  0.25000000  1.0
  P5+  P59  1  0.10000000  0.25000000  0.25000000  1.0
  P5+  P60  1  0.30000000  0.75000000  0.25000000  1.0
  P5+  P61  1  0.30030105  0.24992188  0.24941492  1.0
  P5+  P62  1  0.50000000  0.75000000  0.25000000  1.0
  P5+  P63  1  0.50000000  0.25000000  0.25000000  1.0
  P5+  P64  1  0.70000000  0.75000000  0.25000000  1.0
  P5+  P65  1  0.70000000  0.25000000  0.25000000  1.0
  P5+  P66  1  0.90000000  0.75000000  0.25000000  1.0
  P5+  P67  1  0.90000000  0.25000000  0.25000000  1.0
  Se2-  Se68  1  0.12640917  0.68873022  0.62411100  1.0
  Se2-  Se69  1  0.12490000  0.18775000  0.62350000  1.0
  Se2-  Se70  1  0.32490000  0.68775000  0.62350000  1.0
  Se2-  Se71  1  0.32490000  0.18775000  0.62350000  1.0
  Se2-  Se72  1  0.52490000  0.68775000  0.62350000  1.0
  Se2-  Se73  1  0.52490000  0.18775000  0.62350000  1.0
  Se2-  Se74  1  0.72490000  0.68775000  0.62350000  1.0
  Se2-  Se75  1  0.72490000  0.18775000  0.62350000  1.0
  Se2-  Se76  1  0.92770326  0.68800862  0.62212110  1.0
  Se2-  Se77  1  0.92490000  0.18775000  0.62350000  1.0
  Se2-  Se78  1  0.12628338  0.68814416  0.12870326  1.0
  Se2-  Se79  1  0.12490000  0.18775000  0.12550000  1.0
  Se2-  Se80  1  0.32199197  0.68665779  0.12595367  1.0
  Se2-  Se81  1  0.32490000  0.18775000  0.12550000  1.0
  Se2-  Se82  1  0.52490000  0.68775000  0.12550000  1.0
  Se2-  Se83  1  0.52490000  0.18775000  0.12550000  1.0
  Se2-  Se84  1  0.72441065  0.68095940  0.12125633  1.0
  Se2-  Se85  1  0.72333354  0.18641320  0.13125030  1.0
  Se2-  Se86  1  0.92144895  0.68708253  0.12193614  1.0
  Se2-  Se87  1  0.92490000  0.18775000  0.12550000  1.0
  Se2-  Se88  1  0.12490000  0.93675000  0.12550000  1.0
  Se2-  Se89  1  0.12490000  0.43675000  0.12550000  1.0
  Se2-  Se90  1  0.32800173  0.93424972  0.12817187  1.0
  Se2-  Se91  1  0.32490000  0.43675000  0.12550000  1.0
  Se2-  Se92  1  0.52490000  0.93675000  0.12550000  1.0
  Se2-  Se93  1  0.52490000  0.43675000  0.12550000  1.0
  Se2-  Se94  1  0.72490000  0.93675000  0.12550000  1.0
  Se2-  Se95  1  0.72668741  0.43430160  0.12494374  1.0
  Se2-  Se96  1  0.92490000  0.93675000  0.12550000  1.0
  Se2-  Se97  1  0.92563469  0.43975921  0.12600173  1.0
  Se2-  Se98  1  0.02530000  0.68775000  0.12550000  1.0
  Se2-  Se99  1  0.02530000  0.18775000  0.12550000  1.0
  Se2-  Se100  1  0.22530000  0.68775000  0.12550000  1.0
  Se2-  Se101  1  0.22530000  0.18775000  0.12550000  1.0
  Se2-  Se102  1  0.42530000  0.68775000  0.12550000  1.0
  Se2-  Se103  1  0.42530000  0.18775000  0.12550000  1.0
  Se2-  Se104  1  0.62530000  0.68775000  0.12550000  1.0
  Se2-  Se105  1  0.62530000  0.18775000  0.12550000  1.0
  Se2-  Se106  1  0.82530000  0.68775000  0.12550000  1.0
  Se2-  Se107  1  0.82530000  0.18775000  0.12550000  1.0
  Se2-  Se108  1  0.05000000  0.87500000  0.50000000  1.0
  Se2-  Se109  1  0.25000000  0.37500000  0.50000000  1.0
  Se2-  Se110  1  0.65000000  0.37500000  0.50000000  1.0
  Se2-  Se111  1  0.19564313  0.49763490  0.75019092  1.0
  Se2-  Se112  1  0.40000000  0.50000000  0.75000000  1.0
  Se2-  Se113  1  0.59843965  0.99838518  0.75132368  1.0
  Se2-  Se114  1  0.80000000  0.00000000  0.75000000  1.0
  Se2-  Se115  1  0.79957240  0.50066345  0.75331089  1.0
  Br-  Br116  1  0.05000000  0.37500000  0.50000000  1.0
  Br-  Br117  1  0.25000000  0.87500000  0.50000000  1.0
  Br-  Br118  1  0.45000000  0.87500000  0.50000000  1.0
  Br-  Br119  1  0.45000000  0.37500000  0.50000000  1.0
  Br-  Br120  1  0.65000000  0.87500000  0.50000000  1.0
  Br-  Br121  1  0.85000000  0.87500000  0.50000000  1.0
  Br-  Br122  1  0.85000000  0.37500000  0.50000000  1.0
  Br-  Br123  1  0.00000000  0.00000000  0.75000000  1.0
  Br-  Br124  1  0.00000000  0.50000000  0.75000000  1.0
  Br-  Br125  1  0.20000000  0.00000000  0.75000000  1.0
  Br-  Br126  1  0.40346409  0.99603786  0.74760626  1.0
  Br-  Br127  1  0.59690254  0.49874443  0.74770818  1.0
