# generated using pymatgen
data_Li29P5(Se4Br)6
_symmetry_space_group_name_H-M   'P 1'
_cell_length_a   7.37828557
_cell_length_b   36.89142781
_cell_length_c   14.75657112
_cell_angle_alpha   120.00000000
_cell_angle_beta   120.00000000
_cell_angle_gamma   60.00000000
_symmetry_Int_Tables_number   1
_chemical_formula_structural   Li29P5(Se4Br)6
_chemical_formula_sum   'Li58 P10 Se48 Br12'
_cell_volume   2840.21607891
_cell_formula_units_Z   2
loop_
 _symmetry_equiv_pos_site_id
 _symmetry_equiv_pos_as_xyz
  1  'x, y, z'
loop_
 _atom_type_symbol
 _atom_type_oxidation_number
  Li+  1.0
  P5+  5.0
  Se2-  -2.0
  Br-  -1.0
loop_
 _atom_site_type_symbol
 _atom_site_label
 _atom_site_symmetry_multiplicity
 _atom_site_fract_x
 _atom_site_fract_y
 _atom_site_fract_z
 _atom_site_occupancy
  Li+  Li0  1  0.53500000  0.89766667  0.42250000  1.0
  Li+  Li1  1  0.15500000  0.89766667  0.73250000  1.0
  Li+  Li2  1  0.96920000  0.60674667  0.81940000  1.0
  Li+  Li3  1  0.96920000  0.20674667  0.81940000  1.0
  Li+  Li4  1  0.96920000  0.80674667  0.81940000  1.0
  Li+  Li5  1  0.36120000  0.86050667  0.14980000  1.0
  Li+  Li6  1  0.96920000  0.13890667  0.01540000  1.0
  Li+  Li7  1  0.96920000  0.66050667  0.31940000  1.0
  Li+  Li8  1  0.96920000  0.46050667  0.81940000  1.0
  Li+  Li9  1  0.96920000  0.46050667  0.64980000  1.0
  Li+  Li10  1  0.96920000  0.86050667  0.14980000  1.0
  Li+  Li11  1  0.70040000  0.46050667  0.31940000  1.0
  Li+  Li12  1  0.70040000  0.46050667  0.81940000  1.0
  Li+  Li13  1  0.70040000  0.26050667  0.31940000  1.0
  Li+  Li14  1  0.70040000  0.06050667  0.31940000  1.0
  Li+  Li15  1  0.70040000  0.66050667  0.51540000  1.0
  Li+  Li16  1  0.70040000  0.06050667  0.51540000  1.0
  Li+  Li17  1  0.96920000  0.60674667  0.01540000  1.0
  Li+  Li18  1  0.96920000  0.00674667  0.51540000  1.0
  Li+  Li19  1  0.70040000  0.53890667  0.51540000  1.0
  Li+  Li20  1  0.36120000  0.60674667  0.51540000  1.0
  Li+  Li21  1  0.36120000  0.40674667  0.51540000  1.0
  Li+  Li22  1  0.36120000  0.20674667  0.01540000  1.0
  Li+  Li23  1  0.76550000  0.61976667  0.43325000  1.0
  Li+  Li24  1  0.76550000  0.41976667  0.43325000  1.0
  Li+  Li25  1  0.76550000  0.81976667  0.43325000  1.0
  Li+  Li26  1  0.76550000  0.81976667  0.93325000  1.0
  Li+  Li27  1  0.13350000  0.33376667  0.11725000  1.0
  Li+  Li28  1  0.13350000  0.13376667  0.61725000  1.0
  Li+  Li29  1  0.13350000  0.93376667  0.11725000  1.0
  Li+  Li30  1  0.13350000  0.93376667  0.61725000  1.0
  Li+  Li31  1  0.33550000  0.29336667  0.11725000  1.0
  Li+  Li32  1  0.33550000  0.09336667  0.11725000  1.0
  Li+  Li33  1  0.76550000  0.53376667  0.93325000  1.0
  Li+  Li34  1  0.76550000  0.33376667  0.93325000  1.0
  Li+  Li35  1  0.76550000  0.93376667  0.43325000  1.0
  Li+  Li36  1  0.76550000  0.73376667  0.93325000  1.0
  Li+  Li37  1  0.76550000  0.93376667  0.61725000  1.0
  Li+  Li38  1  0.76550000  0.73376667  0.61725000  1.0
  Li+  Li39  1  0.33550000  0.01976667  0.43325000  1.0
  Li+  Li40  1  0.33550000  0.41976667  0.11725000  1.0
  Li+  Li41  1  0.33550000  0.21976667  0.61725000  1.0
  Li+  Li42  1  0.33550000  0.81976667  0.61725000  1.0
  Li+  Li43  1  0.76550000  0.09336667  0.33225000  1.0
  Li+  Li44  1  0.76550000  0.89336667  0.33225000  1.0
  Li+  Li45  1  0.76550000  0.89336667  0.83225000  1.0
  Li+  Li46  1  0.76550000  0.69336667  0.33225000  1.0
  Li+  Li47  1  0.76550000  0.69336667  0.83225000  1.0
  Li+  Li48  1  0.13350000  0.41976667  0.83225000  1.0
  Li+  Li49  1  0.13350000  0.21976667  0.33225000  1.0
  Li+  Li50  1  0.13350000  0.01976667  0.83225000  1.0
  Li+  Li51  1  0.76550000  0.49336667  0.11725000  1.0
  Li+  Li52  1  0.76550000  0.29336667  0.11725000  1.0
  Li+  Li53  1  0.76550000  0.09336667  0.61725000  1.0
  Li+  Li54  1  0.13350000  0.61976667  0.11725000  1.0
  Li+  Li55  1  0.76550000  0.61976667  0.83225000  1.0
  Li+  Li56  1  0.76550000  0.21976667  0.33225000  1.0
  Li+  Li57  1  0.76550000  0.01976667  0.83225000  1.0
  P5+  P58  1  0.50000000  0.56666667  0.25000000  1.0
  P5+  P59  1  0.50000000  0.56666667  0.75000000  1.0
  P5+  P60  1  0.50000000  0.36666667  0.25000000  1.0
  P5+  P61  1  0.50000000  0.36666667  0.75000000  1.0
  P5+  P62  1  0.50000000  0.16666667  0.25000000  1.0
  P5+  P63  1  0.50000000  0.16666667  0.75000000  1.0
  P5+  P64  1  0.50000000  0.96666667  0.25000000  1.0
  P5+  P65  1  0.50000000  0.96666667  0.75000000  1.0
  P5+  P66  1  0.50000000  0.76666667  0.25000000  1.0
  P5+  P67  1  0.50000000  0.76666667  0.75000000  1.0
  Se2-  Se68  1  0.87350000  0.54176667  0.31225000  1.0
  Se2-  Se69  1  0.87350000  0.54176667  0.81225000  1.0
  Se2-  Se70  1  0.87350000  0.34176667  0.31225000  1.0
  Se2-  Se71  1  0.87350000  0.34176667  0.81225000  1.0
  Se2-  Se72  1  0.87350000  0.14176667  0.31225000  1.0
  Se2-  Se73  1  0.87350000  0.14176667  0.81225000  1.0
  Se2-  Se74  1  0.87350000  0.94176667  0.31225000  1.0
  Se2-  Se75  1  0.87350000  0.94176667  0.81225000  1.0
  Se2-  Se76  1  0.87350000  0.74176667  0.31225000  1.0
  Se2-  Se77  1  0.87350000  0.74176667  0.81225000  1.0
  Se2-  Se78  1  0.37550000  0.54176667  0.31225000  1.0
  Se2-  Se79  1  0.37550000  0.54176667  0.81225000  1.0
  Se2-  Se80  1  0.37550000  0.34176667  0.31225000  1.0
  Se2-  Se81  1  0.37550000  0.34176667  0.81225000  1.0
  Se2-  Se82  1  0.37550000  0.14176667  0.31225000  1.0
  Se2-  Se83  1  0.37550000  0.14176667  0.81225000  1.0
  Se2-  Se84  1  0.37550000  0.94176667  0.31225000  1.0
  Se2-  Se85  1  0.37550000  0.94176667  0.81225000  1.0
  Se2-  Se86  1  0.37550000  0.74176667  0.31225000  1.0
  Se2-  Se87  1  0.37550000  0.74176667  0.81225000  1.0
  Se2-  Se88  1  0.37550000  0.54176667  0.06325000  1.0
  Se2-  Se89  1  0.37550000  0.54176667  0.56325000  1.0
  Se2-  Se90  1  0.37550000  0.34176667  0.06325000  1.0
  Se2-  Se91  1  0.37550000  0.34176667  0.56325000  1.0
  Se2-  Se92  1  0.37550000  0.14176667  0.06325000  1.0
  Se2-  Se93  1  0.37550000  0.14176667  0.56325000  1.0
  Se2-  Se94  1  0.37550000  0.94176667  0.06325000  1.0
  Se2-  Se95  1  0.37550000  0.94176667  0.56325000  1.0
  Se2-  Se96  1  0.37550000  0.74176667  0.06325000  1.0
  Se2-  Se97  1  0.37550000  0.74176667  0.56325000  1.0
  Se2-  Se98  1  0.37550000  0.64136667  0.31225000  1.0
  Se2-  Se99  1  0.37550000  0.64136667  0.81225000  1.0
  Se2-  Se100  1  0.37550000  0.44136667  0.31225000  1.0
  Se2-  Se101  1  0.37550000  0.44136667  0.81225000  1.0
  Se2-  Se102  1  0.37550000  0.24136667  0.31225000  1.0
  Se2-  Se103  1  0.37550000  0.24136667  0.81225000  1.0
  Se2-  Se104  1  0.37550000  0.04136667  0.31225000  1.0
  Se2-  Se105  1  0.37550000  0.04136667  0.81225000  1.0
  Se2-  Se106  1  0.37550000  0.84136667  0.31225000  1.0
  Se2-  Se107  1  0.37550000  0.84136667  0.81225000  1.0
  Se2-  Se108  1  0.75000000  0.61666667  0.12500000  1.0
  Se2-  Se109  1  0.75000000  0.41666667  0.62500000  1.0
  Se2-  Se110  1  0.75000000  0.01666667  0.62500000  1.0
  Se2-  Se111  1  0.00000000  0.46666667  0.50000000  1.0
  Se2-  Se112  1  0.00000000  0.26666667  0.50000000  1.0
  Se2-  Se113  1  0.00000000  0.06666667  0.00000000  1.0
  Se2-  Se114  1  0.00000000  0.86666667  0.00000000  1.0
  Se2-  Se115  1  0.00000000  0.86666667  0.50000000  1.0
  Br-  Br116  1  0.75000000  0.61666667  0.62500000  1.0
  Br-  Br117  1  0.75000000  0.41666667  0.12500000  1.0
  Br-  Br118  1  0.75000000  0.21666667  0.12500000  1.0
  Br-  Br119  1  0.75000000  0.21666667  0.62500000  1.0
  Br-  Br120  1  0.75000000  0.01666667  0.12500000  1.0
  Br-  Br121  1  0.75000000  0.81666667  0.12500000  1.0
  Br-  Br122  1  0.75000000  0.81666667  0.62500000  1.0
  Br-  Br123  1  0.00000000  0.66666667  0.00000000  1.0
  Br-  Br124  1  0.00000000  0.66666667  0.50000000  1.0
  Br-  Br125  1  0.00000000  0.46666667  0.00000000  1.0
  Br-  Br126  1  0.00000000  0.26666667  0.00000000  1.0
  Br-  Br127  1  0.00000000  0.06666667  0.50000000  1.0
