# generated using pymatgen
data_Li29P5(Se4Br)6
_symmetry_space_group_name_H-M   'P 1'
_cell_length_a   36.62823733
_cell_length_b   7.32564747
_cell_length_c   14.65129493
_cell_angle_alpha   60.00000000
_cell_angle_beta   60.00000000
_cell_angle_gamma   60.00000000
_symmetry_Int_Tables_number   1
_chemical_formula_structural   Li29P5(Se4Br)6
_chemical_formula_sum   'Li58 P10 Se48 Br12'
_cell_volume   2779.86079003
_cell_formula_units_Z   2
loop_
 _symmetry_equiv_pos_site_id
 _symmetry_equiv_pos_as_xyz
  1  'x, y, z'
loop_
 _atom_type_symbol
 _atom_type_oxidation_number
  Li+  1.0
  P5+  5.0
  Se2-  -2.0
  Br-  -1.0
loop_
 _atom_site_type_symbol
 _atom_site_label
 _atom_site_symmetry_multiplicity
 _atom_site_fract_x
 _atom_site_fract_y
 _atom_site_fract_z
 _atom_site_occupancy
  Li+  Li0  1  0.76900000  0.46500000  0.42250000  1.0
  Li+  Li1  1  0.76900000  0.84500000  0.73250000  1.0
  Li+  Li2  1  0.05992000  0.03080000  0.81940000  1.0
  Li+  Li3  1  0.45992000  0.03080000  0.81940000  1.0
  Li+  Li4  1  0.85992000  0.03080000  0.81940000  1.0
  Li+  Li5  1  0.80616000  0.63880000  0.14980000  1.0
  Li+  Li6  1  0.52776000  0.03080000  0.01540000  1.0
  Li+  Li7  1  0.00616000  0.03080000  0.31940000  1.0
  Li+  Li8  1  0.20616000  0.03080000  0.81940000  1.0
  Li+  Li9  1  0.20616000  0.03080000  0.64980000  1.0
  Li+  Li10  1  0.80616000  0.03080000  0.14980000  1.0
  Li+  Li11  1  0.20616000  0.29960000  0.31940000  1.0
  Li+  Li12  1  0.20616000  0.29960000  0.81940000  1.0
  Li+  Li13  1  0.40616000  0.29960000  0.31940000  1.0
  Li+  Li14  1  0.60616000  0.29960000  0.31940000  1.0
  Li+  Li15  1  0.00616000  0.29960000  0.51540000  1.0
  Li+  Li16  1  0.60616000  0.29960000  0.51540000  1.0
  Li+  Li17  1  0.05992000  0.03080000  0.01540000  1.0
  Li+  Li18  1  0.65992000  0.03080000  0.51540000  1.0
  Li+  Li19  1  0.12776000  0.29960000  0.51540000  1.0
  Li+  Li20  1  0.05992000  0.63880000  0.51540000  1.0
  Li+  Li21  1  0.25992000  0.63880000  0.51540000  1.0
  Li+  Li22  1  0.45992000  0.63880000  0.01540000  1.0
  Li+  Li23  1  0.04690000  0.23450000  0.43325000  1.0
  Li+  Li24  1  0.24690000  0.23450000  0.43325000  1.0
  Li+  Li25  1  0.84690000  0.23450000  0.43325000  1.0
  Li+  Li26  1  0.84690000  0.23450000  0.93325000  1.0
  Li+  Li27  1  0.33290000  0.86650000  0.11725000  1.0
  Li+  Li28  1  0.53290000  0.86650000  0.61725000  1.0
  Li+  Li29  1  0.73290000  0.86650000  0.11725000  1.0
  Li+  Li30  1  0.73290000  0.86650000  0.61725000  1.0
  Li+  Li31  1  0.37330000  0.66450000  0.11725000  1.0
  Li+  Li32  1  0.57330000  0.66450000  0.11725000  1.0
  Li+  Li33  1  0.13290000  0.23450000  0.93325000  1.0
  Li+  Li34  1  0.33290000  0.23450000  0.93325000  1.0
  Li+  Li35  1  0.73290000  0.23450000  0.43325000  1.0
  Li+  Li36  1  0.93290000  0.23450000  0.93325000  1.0
  Li+  Li37  1  0.73290000  0.23450000  0.61725000  1.0
  Li+  Li38  1  0.93290000  0.23450000  0.61725000  1.0
  Li+  Li39  1  0.64690000  0.66450000  0.43325000  1.0
  Li+  Li40  1  0.24690000  0.66450000  0.11725000  1.0
  Li+  Li41  1  0.44690000  0.66450000  0.61725000  1.0
  Li+  Li42  1  0.84690000  0.66450000  0.61725000  1.0
  Li+  Li43  1  0.57330000  0.23450000  0.33225000  1.0
  Li+  Li44  1  0.77330000  0.23450000  0.33225000  1.0
  Li+  Li45  1  0.77330000  0.23450000  0.83225000  1.0
  Li+  Li46  1  0.97330000  0.23450000  0.33225000  1.0
  Li+  Li47  1  0.97330000  0.23450000  0.83225000  1.0
  Li+  Li48  1  0.24690000  0.86650000  0.83225000  1.0
  Li+  Li49  1  0.44690000  0.86650000  0.33225000  1.0
  Li+  Li50  1  0.64690000  0.86650000  0.83225000  1.0
  Li+  Li51  1  0.17330000  0.23450000  0.11725000  1.0
  Li+  Li52  1  0.37330000  0.23450000  0.11725000  1.0
  Li+  Li53  1  0.57330000  0.23450000  0.61725000  1.0
  Li+  Li54  1  0.04690000  0.86650000  0.11725000  1.0
  Li+  Li55  1  0.04690000  0.23450000  0.83225000  1.0
  Li+  Li56  1  0.44690000  0.23450000  0.33225000  1.0
  Li+  Li57  1  0.64690000  0.23450000  0.83225000  1.0
  P5+  P1  1  0.10000000  0.50000000  0.25000000  1.0
  P5+  P1  1  0.10000000  0.50000000  0.75000000  1.0
  P5+  P1  1  0.30000000  0.50000000  0.25000000  1.0
  P5+  P1  1  0.30000000  0.50000000  0.75000000  1.0
  P5+  P1  1  0.50000000  0.50000000  0.25000000  1.0
  P5+  P1  1  0.50000000  0.50000000  0.75000000  1.0
  P5+  P1  1  0.70000000  0.50000000  0.25000000  1.0
  P5+  P1  1  0.70000000  0.50000000  0.75000000  1.0
  P5+  P1  1  0.90000000  0.50000000  0.25000000  1.0
  P5+  P1  1  0.90000000  0.50000000  0.75000000  1.0
  Se2-  Se2  1  0.12490000  0.12650000  0.31225000  1.0
  Se2-  Se2  1  0.12490000  0.12650000  0.81225000  1.0
  Se2-  Se2  1  0.32490000  0.12650000  0.31225000  1.0
  Se2-  Se2  1  0.32490000  0.12650000  0.81225000  1.0
  Se2-  Se2  1  0.52490000  0.12650000  0.31225000  1.0
  Se2-  Se2  1  0.52490000  0.12650000  0.81225000  1.0
  Se2-  Se2  1  0.72490000  0.12650000  0.31225000  1.0
  Se2-  Se2  1  0.72490000  0.12650000  0.81225000  1.0
  Se2-  Se2  1  0.92490000  0.12650000  0.31225000  1.0
  Se2-  Se2  1  0.92490000  0.12650000  0.81225000  1.0
  Se2-  Se2  1  0.12490000  0.62450000  0.31225000  1.0
  Se2-  Se2  1  0.12490000  0.62450000  0.81225000  1.0
  Se2-  Se2  1  0.32490000  0.62450000  0.31225000  1.0
  Se2-  Se2  1  0.32490000  0.62450000  0.81225000  1.0
  Se2-  Se2  1  0.52490000  0.62450000  0.31225000  1.0
  Se2-  Se2  1  0.52490000  0.62450000  0.81225000  1.0
  Se2-  Se2  1  0.72490000  0.62450000  0.31225000  1.0
  Se2-  Se2  1  0.72490000  0.62450000  0.81225000  1.0
  Se2-  Se2  1  0.92490000  0.62450000  0.31225000  1.0
  Se2-  Se2  1  0.92490000  0.62450000  0.81225000  1.0
  Se2-  Se2  1  0.12490000  0.62450000  0.06325000  1.0
  Se2-  Se2  1  0.12490000  0.62450000  0.56325000  1.0
  Se2-  Se2  1  0.32490000  0.62450000  0.06325000  1.0
  Se2-  Se2  1  0.32490000  0.62450000  0.56325000  1.0
  Se2-  Se2  1  0.52490000  0.62450000  0.06325000  1.0
  Se2-  Se2  1  0.52490000  0.62450000  0.56325000  1.0
  Se2-  Se2  1  0.72490000  0.62450000  0.06325000  1.0
  Se2-  Se2  1  0.72490000  0.62450000  0.56325000  1.0
  Se2-  Se2  1  0.92490000  0.62450000  0.06325000  1.0
  Se2-  Se2  1  0.92490000  0.62450000  0.56325000  1.0
  Se2-  Se2  1  0.02530000  0.62450000  0.31225000  1.0
  Se2-  Se2  1  0.02530000  0.62450000  0.81225000  1.0
  Se2-  Se2  1  0.22530000  0.62450000  0.31225000  1.0
  Se2-  Se2  1  0.22530000  0.62450000  0.81225000  1.0
  Se2-  Se2  1  0.42530000  0.62450000  0.31225000  1.0
  Se2-  Se2  1  0.42530000  0.62450000  0.81225000  1.0
  Se2-  Se2  1  0.62530000  0.62450000  0.31225000  1.0
  Se2-  Se2  1  0.62530000  0.62450000  0.81225000  1.0
  Se2-  Se2  1  0.82530000  0.62450000  0.31225000  1.0
  Se2-  Se2  1  0.82530000  0.62450000  0.81225000  1.0
  Se2-  Se108  1  0.05000000  0.25000000  0.12500000  1.0
  Se2-  Se109  1  0.25000000  0.25000000  0.62500000  1.0
  Se2-  Se110  1  0.65000000  0.25000000  0.62500000  1.0
  Se2-  Se111  1  0.20000000  0.00000000  0.50000000  1.0
  Se2-  Se112  1  0.40000000  0.00000000  0.50000000  1.0
  Se2-  Se113  1  0.60000000  0.00000000  0.00000000  1.0
  Se2-  Se114  1  0.80000000  0.00000000  0.00000000  1.0
  Se2-  Se115  1  0.80000000  0.00000000  0.50000000  1.0
  Br-  Br116  1  0.05000000  0.25000000  0.62500000  1.0
  Br-  Br117  1  0.25000000  0.25000000  0.12500000  1.0
  Br-  Br118  1  0.45000000  0.25000000  0.12500000  1.0
  Br-  Br119  1  0.45000000  0.25000000  0.62500000  1.0
  Br-  Br120  1  0.65000000  0.25000000  0.12500000  1.0
  Br-  Br121  1  0.85000000  0.25000000  0.12500000  1.0
  Br-  Br122  1  0.85000000  0.25000000  0.62500000  1.0
  Br-  Br123  1  0.00000000  0.00000000  0.00000000  1.0
  Br-  Br124  1  0.00000000  0.00000000  0.50000000  1.0
  Br-  Br125  1  0.20000000  0.00000000  0.00000000  1.0
  Br-  Br126  1  0.40000000  0.00000000  0.00000000  1.0
  Br-  Br127  1  0.60000000  0.00000000  0.50000000  1.0
