# generated using pymatgen
data_Li3ErCl6
_symmetry_space_group_name_H-M   'P 1'
_cell_length_a   12.07200000
_cell_length_b   11.17700000
_cell_length_c   33.53100000
_cell_angle_alpha   120.00000000
_cell_angle_beta   90.00000000
_cell_angle_gamma   90.00000000
_symmetry_Int_Tables_number   1
_chemical_formula_structural   Li3ErCl6
_chemical_formula_sum   'Li54 Er18 Cl108'
_cell_volume   3918.15502348
_cell_formula_units_Z   18
loop_
 _symmetry_equiv_pos_site_id
 _symmetry_equiv_pos_as_xyz
  1  'x, y, z'
loop_
 _atom_type_symbol
 _atom_type_oxidation_number
  Li+  1.0
  Er3+  3.0
  Cl-  -1.0
loop_
 _atom_site_type_symbol
 _atom_site_label
 _atom_site_symmetry_multiplicity
 _atom_site_fract_x
 _atom_site_fract_y
 _atom_site_fract_z
 _atom_site_occupancy
  Li+  Li0  1  0.50020617  0.34174602  0.74909959  1.0
  Li+  Li1  1  0.50000000  0.33970000  0.41666667  1.0
  Li+  Li2  1  0.50000000  0.33970000  0.08333333  1.0
  Li+  Li3  1  0.00270211  0.34100514  0.74883790  1.0
  Li+  Li4  1  0.00000000  0.33970000  0.41666667  1.0
  Li+  Li5  1  0.99947610  0.34037639  0.08646057  1.0
  Li+  Li6  1  0.50000000  0.66030000  0.63676667  1.0
  Li+  Li7  1  0.50000000  0.66030000  0.30343333  1.0
  Li+  Li8  1  0.50210403  0.65856765  0.96776816  1.0
  Li+  Li9  1  0.00000000  0.66030000  0.63676667  1.0
  Li+  Li10  1  0.00000000  0.66030000  0.30343333  1.0
  Li+  Li11  1  0.00094288  0.65973850  0.96612566  1.0
  Li+  Li12  1  0.00197119  0.99909263  0.52916183  1.0
  Li+  Li13  1  0.00000000  0.00000000  0.19656667  1.0
  Li+  Li14  1  0.00000000  0.00000000  0.86323333  1.0
  Li+  Li15  1  0.50000000  0.00000000  0.52990000  1.0
  Li+  Li16  1  0.50000000  0.00000000  0.19656667  1.0
  Li+  Li17  1  0.50000000  0.00000000  0.86323333  1.0
  Li+  Li18  1  0.00000000  0.66030000  0.75000000  1.0
  Li+  Li19  1  0.00000000  0.66030000  0.41666667  1.0
  Li+  Li20  1  0.00000000  0.66030000  0.08333333  1.0
  Li+  Li21  1  0.50000000  0.66030000  0.75000000  1.0
  Li+  Li22  1  0.49943825  0.66402145  0.42373042  1.0
  Li+  Li23  1  0.50000000  0.66030000  0.08333333  1.0
  Li+  Li24  1  0.00001065  0.34526591  0.53250227  1.0
  Li+  Li25  1  0.00000000  0.33970000  0.19656667  1.0
  Li+  Li26  1  0.00000000  0.33970000  0.86323333  1.0
  Li+  Li27  1  0.50000000  0.33970000  0.52990000  1.0
  Li+  Li28  1  0.50000000  0.33970000  0.19656667  1.0
  Li+  Li29  1  0.50000000  0.33970000  0.86323333  1.0
  Li+  Li30  1  0.50000000  0.00000000  0.63676667  1.0
  Li+  Li31  1  0.50000000  0.00000000  0.30343333  1.0
  Li+  Li32  1  0.50000000  0.00000000  0.97010000  1.0
  Li+  Li33  1  0.00000000  0.00000000  0.63676667  1.0
  Li+  Li34  1  0.00152265  0.00238633  0.30430027  1.0
  Li+  Li35  1  0.00000000  0.00000000  0.97010000  1.0
  Li+  Li36  1  0.25000000  0.00000000  0.65386667  1.0
  Li+  Li37  1  0.24931749  0.99960416  0.32238651  1.0
  Li+  Li38  1  0.25061380  0.99631647  0.98781197  1.0
  Li+  Li39  1  0.25000000  0.71160000  0.75000000  1.0
  Li+  Li40  1  0.25000000  0.71160000  0.41666667  1.0
  Li+  Li41  1  0.25000000  0.71160000  0.08333333  1.0
  Li+  Li42  1  0.75000000  0.00000000  0.51280000  1.0
  Li+  Li43  1  0.75003064  0.00108304  0.18449255  1.0
  Li+  Li44  1  0.75000000  0.00000000  0.84613333  1.0
  Li+  Li45  1  0.25000000  0.28840000  0.75000000  1.0
  Li+  Li46  1  0.25000000  0.28840000  0.41666667  1.0
  Li+  Li47  1  0.25000000  0.28840000  0.08333333  1.0
  Li+  Li48  1  0.75000000  0.28840000  0.75000000  1.0
  Li+  Li49  1  0.75000000  0.28840000  0.41666667  1.0
  Li+  Li50  1  0.74688264  0.28516021  0.08153709  1.0
  Li+  Li51  1  0.75000000  0.71160000  0.65386667  1.0
  Li+  Li52  1  0.74816422  0.70980304  0.32174420  1.0
  Li+  Li53  1  0.75000000  0.71160000  0.98720000  1.0
  Er3+  Er54  1  0.00000000  0.00000000  0.75000000  1.0
  Er3+  Er55  1  0.00000000  0.00000000  0.41666667  1.0
  Er3+  Er56  1  0.00000000  0.00000000  0.08333333  1.0
  Er3+  Er57  1  0.49897624  0.00273411  0.74936627  1.0
  Er3+  Er58  1  0.50003852  0.99794663  0.41563162  1.0
  Er3+  Er59  1  0.50089029  0.99723491  0.08407331  1.0
  Er3+  Er60  1  0.25500000  0.33333333  0.63888889  1.0
  Er3+  Er61  1  0.25500000  0.33333333  0.30555556  1.0
  Er3+  Er62  1  0.25500000  0.33333333  0.97222222  1.0
  Er3+  Er63  1  0.75500000  0.33333333  0.63888889  1.0
  Er3+  Er64  1  0.74914001  0.32733608  0.30596175  1.0
  Er3+  Er65  1  0.75500000  0.33333333  0.97222222  1.0
  Er3+  Er66  1  0.24500000  0.66666667  0.52777778  1.0
  Er3+  Er67  1  0.24500000  0.66666667  0.19444444  1.0
  Er3+  Er68  1  0.24570393  0.66810096  0.85970571  1.0
  Er3+  Er69  1  0.74500000  0.66666667  0.52777778  1.0
  Er3+  Er70  1  0.74676695  0.66422634  0.19523772  1.0
  Er3+  Er71  1  0.74500000  0.66666667  0.86111111  1.0
  Cl-  Cl72  1  0.38405000  0.11350000  0.49233333  1.0
  Cl-  Cl73  1  0.38405000  0.11350000  0.15900000  1.0
  Cl-  Cl74  1  0.38405000  0.11350000  0.82566667  1.0
  Cl-  Cl75  1  0.88405000  0.11350000  0.49233333  1.0
  Cl-  Cl76  1  0.88405000  0.11350000  0.15900000  1.0
  Cl-  Cl77  1  0.88405000  0.11350000  0.82566667  1.0
  Cl-  Cl78  1  0.38405000  0.11350000  0.71216667  1.0
  Cl-  Cl79  1  0.38297955  0.11329002  0.37846508  1.0
  Cl-  Cl80  1  0.38299074  0.11808781  0.04397433  1.0
  Cl-  Cl81  1  0.88405000  0.11350000  0.71216667  1.0
  Cl-  Cl82  1  0.88405000  0.11350000  0.37883333  1.0
  Cl-  Cl83  1  0.88405000  0.11350000  0.04550000  1.0
  Cl-  Cl84  1  0.38405000  0.77300000  0.71216667  1.0
  Cl-  Cl85  1  0.38405000  0.77300000  0.37883333  1.0
  Cl-  Cl86  1  0.38405000  0.77300000  0.04550000  1.0
  Cl-  Cl87  1  0.88405000  0.77300000  0.71216667  1.0
  Cl-  Cl88  1  0.88405000  0.77300000  0.37883333  1.0
  Cl-  Cl89  1  0.88018688  0.77261049  0.04556725  1.0
  Cl-  Cl90  1  0.11595000  0.88650000  0.67433333  1.0
  Cl-  Cl91  1  0.11595000  0.88650000  0.34100000  1.0
  Cl-  Cl92  1  0.11595000  0.88650000  0.00766667  1.0
  Cl-  Cl93  1  0.61428028  0.88768483  0.67264538  1.0
  Cl-  Cl94  1  0.61210796  0.88570081  0.33807909  1.0
  Cl-  Cl95  1  0.61595000  0.88650000  0.00766667  1.0
  Cl-  Cl96  1  0.11595000  0.88650000  0.45450000  1.0
  Cl-  Cl97  1  0.11558983  0.88392144  0.11827615  1.0
  Cl-  Cl98  1  0.11595000  0.88650000  0.78783333  1.0
  Cl-  Cl99  1  0.61610206  0.88686526  0.45507127  1.0
  Cl-  Cl100  1  0.61931185  0.88847978  0.12102354  1.0
  Cl-  Cl101  1  0.61595000  0.88650000  0.78783333  1.0
  Cl-  Cl102  1  0.11595000  0.22700000  0.45450000  1.0
  Cl-  Cl103  1  0.11595000  0.22700000  0.12116667  1.0
  Cl-  Cl104  1  0.11595000  0.22700000  0.78783333  1.0
  Cl-  Cl105  1  0.61724048  0.22856590  0.45639058  1.0
  Cl-  Cl106  1  0.61595000  0.22700000  0.12116667  1.0
  Cl-  Cl107  1  0.61595000  0.22700000  0.78783333  1.0
  Cl-  Cl108  1  0.13717588  0.22122293  0.55916875  1.0
  Cl-  Cl109  1  0.13380000  0.22150000  0.23100000  1.0
  Cl-  Cl110  1  0.13380000  0.22150000  0.89766667  1.0
  Cl-  Cl111  1  0.63380000  0.22150000  0.56433333  1.0
  Cl-  Cl112  1  0.63380000  0.22150000  0.23100000  1.0
  Cl-  Cl113  1  0.63380000  0.22150000  0.89766667  1.0
  Cl-  Cl114  1  0.13290907  0.21851351  0.67686379  1.0
  Cl-  Cl115  1  0.13380000  0.22150000  0.34283333  1.0
  Cl-  Cl116  1  0.13380000  0.22150000  0.00950000  1.0
  Cl-  Cl117  1  0.63380000  0.22150000  0.67616667  1.0
  Cl-  Cl118  1  0.63380000  0.22150000  0.34283333  1.0
  Cl-  Cl119  1  0.63380000  0.22150000  0.00950000  1.0
  Cl-  Cl120  1  0.13380000  0.55700000  0.67616667  1.0
  Cl-  Cl121  1  0.13380000  0.55700000  0.34283333  1.0
  Cl-  Cl122  1  0.13380000  0.55700000  0.00950000  1.0
  Cl-  Cl123  1  0.63380000  0.55700000  0.67616667  1.0
  Cl-  Cl124  1  0.63380000  0.55700000  0.34283333  1.0
  Cl-  Cl125  1  0.63420629  0.55863659  0.01138380  1.0
  Cl-  Cl126  1  0.36805517  0.77753574  0.59836678  1.0
  Cl-  Cl127  1  0.36332014  0.77800201  0.26894656  1.0
  Cl-  Cl128  1  0.36620000  0.77850000  0.93566667  1.0
  Cl-  Cl129  1  0.86763902  0.78306048  0.60668413  1.0
  Cl-  Cl130  1  0.86620000  0.77850000  0.26900000  1.0
  Cl-  Cl131  1  0.86620000  0.77850000  0.93566667  1.0
  Cl-  Cl132  1  0.36620000  0.77850000  0.49050000  1.0
  Cl-  Cl133  1  0.36975966  0.78042965  0.15513966  1.0
  Cl-  Cl134  1  0.36848405  0.77446317  0.82241904  1.0
  Cl-  Cl135  1  0.86620000  0.77850000  0.49050000  1.0
  Cl-  Cl136  1  0.86620000  0.77850000  0.15716667  1.0
  Cl-  Cl137  1  0.86620000  0.77850000  0.82383333  1.0
  Cl-  Cl138  1  0.36620000  0.44300000  0.49050000  1.0
  Cl-  Cl139  1  0.36620000  0.44300000  0.15716667  1.0
  Cl-  Cl140  1  0.36620000  0.44300000  0.82383333  1.0
  Cl-  Cl141  1  0.86620000  0.44300000  0.49050000  1.0
  Cl-  Cl142  1  0.86620000  0.44300000  0.15716667  1.0
  Cl-  Cl143  1  0.86620000  0.44300000  0.82383333  1.0
  Cl-  Cl144  1  0.37795000  0.44540000  0.71360000  1.0
  Cl-  Cl145  1  0.37795000  0.44540000  0.38026667  1.0
  Cl-  Cl146  1  0.37795000  0.44540000  0.04693333  1.0
  Cl-  Cl147  1  0.87795000  0.44540000  0.71360000  1.0
  Cl-  Cl148  1  0.87700394  0.44471769  0.38345998  1.0
  Cl-  Cl149  1  0.87795000  0.44540000  0.04693333  1.0
  Cl-  Cl150  1  0.37795000  0.44540000  0.60153333  1.0
  Cl-  Cl151  1  0.37795000  0.44540000  0.26820000  1.0
  Cl-  Cl152  1  0.37795000  0.44540000  0.93486667  1.0
  Cl-  Cl153  1  0.87795000  0.44540000  0.60153333  1.0
  Cl-  Cl154  1  0.87792505  0.44286272  0.27135892  1.0
  Cl-  Cl155  1  0.87795000  0.44540000  0.93486667  1.0
  Cl-  Cl156  1  0.37795000  0.10920000  0.60153333  1.0
  Cl-  Cl157  1  0.37598327  0.10996107  0.26635487  1.0
  Cl-  Cl158  1  0.37795000  0.10920000  0.93486667  1.0
  Cl-  Cl159  1  0.87795000  0.10920000  0.60153333  1.0
  Cl-  Cl160  1  0.87795000  0.10920000  0.26820000  1.0
  Cl-  Cl161  1  0.88127694  0.10499128  0.93414443  1.0
  Cl-  Cl162  1  0.12205000  0.55460000  0.45306667  1.0
  Cl-  Cl163  1  0.12375445  0.55351523  0.11767521  1.0
  Cl-  Cl164  1  0.12205000  0.55460000  0.78640000  1.0
  Cl-  Cl165  1  0.62205000  0.55460000  0.45306667  1.0
  Cl-  Cl166  1  0.62105598  0.55211820  0.11848389  1.0
  Cl-  Cl167  1  0.62205000  0.55460000  0.78640000  1.0
  Cl-  Cl168  1  0.12205000  0.55460000  0.56513333  1.0
  Cl-  Cl169  1  0.12205000  0.55460000  0.23180000  1.0
  Cl-  Cl170  1  0.12205000  0.55460000  0.89846667  1.0
  Cl-  Cl171  1  0.62205000  0.55460000  0.56513333  1.0
  Cl-  Cl172  1  0.62205000  0.55460000  0.23180000  1.0
  Cl-  Cl173  1  0.62205000  0.55460000  0.89846667  1.0
  Cl-  Cl174  1  0.12205000  0.89080000  0.56513333  1.0
  Cl-  Cl175  1  0.12205000  0.89080000  0.23180000  1.0
  Cl-  Cl176  1  0.12415938  0.88579992  0.89467904  1.0
  Cl-  Cl177  1  0.62205000  0.89080000  0.56513333  1.0
  Cl-  Cl178  1  0.62205000  0.89080000  0.23180000  1.0
  Cl-  Cl179  1  0.62524440  0.89051722  0.89942829  1.0
