# generated using pymatgen
data_Li3ErCl6
_symmetry_space_group_name_H-M   'P 1'
_cell_length_a   12.07200000
_cell_length_b   33.53100000
_cell_length_c   11.17700000
_cell_angle_alpha   120.00000000
_cell_angle_beta   90.00000000
_cell_angle_gamma   90.00000000
_symmetry_Int_Tables_number   1
_chemical_formula_structural   Li3ErCl6
_chemical_formula_sum   'Li54 Er18 Cl108'
_cell_volume   3918.15502348
_cell_formula_units_Z   18
loop_
 _symmetry_equiv_pos_site_id
 _symmetry_equiv_pos_as_xyz
  1  'x, y, z'
loop_
 _atom_type_symbol
 _atom_type_oxidation_number
  Li+  1.0
  Er3+  3.0
  Cl-  -1.0
loop_
 _atom_site_type_symbol
 _atom_site_label
 _atom_site_symmetry_multiplicity
 _atom_site_fract_x
 _atom_site_fract_y
 _atom_site_fract_z
 _atom_site_occupancy
  Li+  Li1  1  0.50000000  0.00000000  0.66030000  1.0
  Li+  Li1  1  0.50000000  0.33333333  0.66030000  1.0
  Li+  Li1  1  0.50000000  0.66666667  0.66030000  1.0
  Li+  Li1  1  0.00000000  0.00000000  0.66030000  1.0
  Li+  Li1  1  0.00000000  0.33333333  0.66030000  1.0
  Li+  Li1  1  0.00000000  0.66666667  0.66030000  1.0
  Li+  Li1  1  0.50000000  0.11323333  0.33970000  1.0
  Li+  Li1  1  0.50000000  0.44656667  0.33970000  1.0
  Li+  Li1  1  0.50000000  0.77990000  0.33970000  1.0
  Li+  Li1  1  0.00000000  0.11323333  0.33970000  1.0
  Li+  Li1  1  0.00000000  0.44656667  0.33970000  1.0
  Li+  Li1  1  0.00000000  0.77990000  0.33970000  1.0
  Li+  Li1  1  0.00000000  0.22010000  0.00000000  1.0
  Li+  Li1  1  0.00000000  0.55343333  0.00000000  1.0
  Li+  Li1  1  0.00000000  0.88676667  0.00000000  1.0
  Li+  Li1  1  0.50000000  0.22010000  0.00000000  1.0
  Li+  Li1  1  0.50000000  0.55343333  0.00000000  1.0
  Li+  Li1  1  0.50000000  0.88676667  0.00000000  1.0
  Li+  Li1  1  0.00000000  0.00000000  0.33970000  1.0
  Li+  Li1  1  0.00000000  0.33333333  0.33970000  1.0
  Li+  Li1  1  0.00000000  0.66666667  0.33970000  1.0
  Li+  Li1  1  0.50000000  0.00000000  0.33970000  1.0
  Li+  Li1  1  0.50000000  0.33333333  0.33970000  1.0
  Li+  Li1  1  0.50000000  0.66666667  0.33970000  1.0
  Li+  Li1  1  0.00000000  0.22010000  0.66030000  1.0
  Li+  Li1  1  0.00000000  0.55343333  0.66030000  1.0
  Li+  Li1  1  0.00000000  0.88676667  0.66030000  1.0
  Li+  Li1  1  0.50000000  0.22010000  0.66030000  1.0
  Li+  Li1  1  0.50000000  0.55343333  0.66030000  1.0
  Li+  Li1  1  0.50000000  0.88676667  0.66030000  1.0
  Li+  Li1  1  0.50000000  0.11323333  0.00000000  1.0
  Li+  Li1  1  0.50000000  0.44656667  0.00000000  1.0
  Li+  Li1  1  0.50000000  0.77990000  0.00000000  1.0
  Li+  Li1  1  0.00000000  0.11323333  0.00000000  1.0
  Li+  Li1  1  0.00000000  0.44656667  0.00000000  1.0
  Li+  Li1  1  0.00000000  0.77990000  1.00000000  1.0
  Li+  Li12  1  0.25000000  0.09613333  0.00000000  1.0
  Li+  Li12  1  0.25000000  0.42946667  0.00000000  1.0
  Li+  Li12  1  0.25000000  0.76280000  0.00000000  1.0
  Li+  Li13  1  0.25000000  0.00000000  0.28840000  1.0
  Li+  Li13  1  0.25000000  0.33333333  0.28840000  1.0
  Li+  Li13  1  0.25000000  0.66666667  0.28840000  1.0
  Li+  Li14  1  0.75000000  0.23720000  0.00000000  1.0
  Li+  Li14  1  0.75000000  0.57053333  0.00000000  1.0
  Li+  Li14  1  0.75000000  0.90386667  0.00000000  1.0
  Li+  Li15  1  0.25000000  0.00000000  0.71160000  1.0
  Li+  Li15  1  0.25000000  0.33333333  0.71160000  1.0
  Li+  Li15  1  0.25000000  0.66666667  0.71160000  1.0
  Li+  Li16  1  0.75000000  0.00000000  0.71160000  1.0
  Li+  Li16  1  0.75000000  0.33333333  0.71160000  1.0
  Li+  Li16  1  0.75000000  0.66666667  0.71160000  1.0
  Li+  Li17  1  0.75000000  0.09613333  0.28840000  1.0
  Li+  Li17  1  0.75000000  0.42946667  0.28840000  1.0
  Li+  Li17  1  0.75000000  0.76280000  0.28840000  1.0
  Er3+  Er1  1  0.00000000  0.00000000  0.00000000  1.0
  Er3+  Er1  1  0.00000000  0.33333333  0.00000000  1.0
  Er3+  Er1  1  0.00000000  0.66666667  0.00000000  1.0
  Er3+  Er1  1  0.50000000  0.00000000  0.00000000  1.0
  Er3+  Er1  1  0.50000000  0.33333333  0.00000000  1.0
  Er3+  Er1  1  0.50000000  0.66666667  0.00000000  1.0
  Er3+  Er20  1  0.25500000  0.11111111  0.66666667  1.0
  Er3+  Er20  1  0.25500000  0.44444444  0.66666667  1.0
  Er3+  Er20  1  0.25500000  0.77777778  0.66666667  1.0
  Er3+  Er21  1  0.75500000  0.11111111  0.66666667  1.0
  Er3+  Er21  1  0.75500000  0.44444444  0.66666667  1.0
  Er3+  Er21  1  0.75500000  0.77777778  0.66666667  1.0
  Er3+  Er22  1  0.24500000  0.22222222  0.33333333  1.0
  Er3+  Er22  1  0.24500000  0.55555556  0.33333333  1.0
  Er3+  Er22  1  0.24500000  0.88888889  0.33333333  1.0
  Er3+  Er23  1  0.74500000  0.22222222  0.33333333  1.0
  Er3+  Er23  1  0.74500000  0.55555556  0.33333333  1.0
  Er3+  Er23  1  0.74500000  0.88888889  0.33333333  1.0
  Cl-  Cl1  1  0.38405000  0.25766667  0.88650000  1.0
  Cl-  Cl1  1  0.38405000  0.59100000  0.88650000  1.0
  Cl-  Cl1  1  0.38405000  0.92433333  0.88650000  1.0
  Cl-  Cl1  1  0.88405000  0.25766667  0.88650000  1.0
  Cl-  Cl1  1  0.88405000  0.59100000  0.88650000  1.0
  Cl-  Cl1  1  0.88405000  0.92433333  0.88650000  1.0
  Cl-  Cl1  1  0.38405000  0.03783333  0.88650000  1.0
  Cl-  Cl1  1  0.38405000  0.37116667  0.88650000  1.0
  Cl-  Cl1  1  0.38405000  0.70450000  0.88650000  1.0
  Cl-  Cl1  1  0.88405000  0.03783333  0.88650000  1.0
  Cl-  Cl1  1  0.88405000  0.37116667  0.88650000  1.0
  Cl-  Cl1  1  0.88405000  0.70450000  0.88650000  1.0
  Cl-  Cl1  1  0.38405000  0.03783333  0.22700000  1.0
  Cl-  Cl1  1  0.38405000  0.37116667  0.22700000  1.0
  Cl-  Cl1  1  0.38405000  0.70450000  0.22700000  1.0
  Cl-  Cl1  1  0.88405000  0.03783333  0.22700000  1.0
  Cl-  Cl1  1  0.88405000  0.37116667  0.22700000  1.0
  Cl-  Cl1  1  0.88405000  0.70450000  0.22700000  1.0
  Cl-  Cl1  1  0.11595000  0.07566667  0.11350000  1.0
  Cl-  Cl1  1  0.11595000  0.40900000  0.11350000  1.0
  Cl-  Cl1  1  0.11595000  0.74233333  0.11350000  1.0
  Cl-  Cl1  1  0.61595000  0.07566667  0.11350000  1.0
  Cl-  Cl1  1  0.61595000  0.40900000  0.11350000  1.0
  Cl-  Cl1  1  0.61595000  0.74233333  0.11350000  1.0
  Cl-  Cl1  1  0.11595000  0.29550000  0.11350000  1.0
  Cl-  Cl1  1  0.11595000  0.62883333  0.11350000  1.0
  Cl-  Cl1  1  0.11595000  0.96216667  0.11350000  1.0
  Cl-  Cl1  1  0.61595000  0.29550000  0.11350000  1.0
  Cl-  Cl1  1  0.61595000  0.62883333  0.11350000  1.0
  Cl-  Cl1  1  0.61595000  0.96216667  0.11350000  1.0
  Cl-  Cl1  1  0.11595000  0.29550000  0.77300000  1.0
  Cl-  Cl1  1  0.11595000  0.62883333  0.77300000  1.0
  Cl-  Cl1  1  0.11595000  0.96216667  0.77300000  1.0
  Cl-  Cl1  1  0.61595000  0.29550000  0.77300000  1.0
  Cl-  Cl1  1  0.61595000  0.62883333  0.77300000  1.0
  Cl-  Cl1  1  0.61595000  0.96216667  0.77300000  1.0
  Cl-  Cl2  1  0.13380000  0.18566667  0.77850000  1.0
  Cl-  Cl2  1  0.13380000  0.51900000  0.77850000  1.0
  Cl-  Cl2  1  0.13380000  0.85233333  0.77850000  1.0
  Cl-  Cl2  1  0.63380000  0.18566667  0.77850000  1.0
  Cl-  Cl2  1  0.63380000  0.51900000  0.77850000  1.0
  Cl-  Cl2  1  0.63380000  0.85233333  0.77850000  1.0
  Cl-  Cl2  1  0.13380000  0.07383333  0.77850000  1.0
  Cl-  Cl2  1  0.13380000  0.40716667  0.77850000  1.0
  Cl-  Cl2  1  0.13380000  0.74050000  0.77850000  1.0
  Cl-  Cl2  1  0.63380000  0.07383333  0.77850000  1.0
  Cl-  Cl2  1  0.63380000  0.40716667  0.77850000  1.0
  Cl-  Cl2  1  0.63380000  0.74050000  0.77850000  1.0
  Cl-  Cl2  1  0.13380000  0.07383333  0.44300000  1.0
  Cl-  Cl2  1  0.13380000  0.40716667  0.44300000  1.0
  Cl-  Cl2  1  0.13380000  0.74050000  0.44300000  1.0
  Cl-  Cl2  1  0.63380000  0.07383333  0.44300000  1.0
  Cl-  Cl2  1  0.63380000  0.40716667  0.44300000  1.0
  Cl-  Cl2  1  0.63380000  0.74050000  0.44300000  1.0
  Cl-  Cl2  1  0.36620000  0.14766667  0.22150000  1.0
  Cl-  Cl2  1  0.36620000  0.48100000  0.22150000  1.0
  Cl-  Cl2  1  0.36620000  0.81433333  0.22150000  1.0
  Cl-  Cl2  1  0.86620000  0.14766667  0.22150000  1.0
  Cl-  Cl2  1  0.86620000  0.48100000  0.22150000  1.0
  Cl-  Cl2  1  0.86620000  0.81433333  0.22150000  1.0
  Cl-  Cl2  1  0.36620000  0.25950000  0.22150000  1.0
  Cl-  Cl2  1  0.36620000  0.59283333  0.22150000  1.0
  Cl-  Cl2  1  0.36620000  0.92616667  0.22150000  1.0
  Cl-  Cl2  1  0.86620000  0.25950000  0.22150000  1.0
  Cl-  Cl2  1  0.86620000  0.59283333  0.22150000  1.0
  Cl-  Cl2  1  0.86620000  0.92616667  0.22150000  1.0
  Cl-  Cl2  1  0.36620000  0.25950000  0.55700000  1.0
  Cl-  Cl2  1  0.36620000  0.59283333  0.55700000  1.0
  Cl-  Cl2  1  0.36620000  0.92616667  0.55700000  1.0
  Cl-  Cl2  1  0.86620000  0.25950000  0.55700000  1.0
  Cl-  Cl2  1  0.86620000  0.59283333  0.55700000  1.0
  Cl-  Cl2  1  0.86620000  0.92616667  0.55700000  1.0
  Cl-  Cl3  1  0.37795000  0.03640000  0.55460000  1.0
  Cl-  Cl3  1  0.37795000  0.36973333  0.55460000  1.0
  Cl-  Cl3  1  0.37795000  0.70306667  0.55460000  1.0
  Cl-  Cl3  1  0.87795000  0.03640000  0.55460000  1.0
  Cl-  Cl3  1  0.87795000  0.36973333  0.55460000  1.0
  Cl-  Cl3  1  0.87795000  0.70306667  0.55460000  1.0
  Cl-  Cl3  1  0.37795000  0.14846667  0.55460000  1.0
  Cl-  Cl3  1  0.37795000  0.48180000  0.55460000  1.0
  Cl-  Cl3  1  0.37795000  0.81513333  0.55460000  1.0
  Cl-  Cl3  1  0.87795000  0.14846667  0.55460000  1.0
  Cl-  Cl3  1  0.87795000  0.48180000  0.55460000  1.0
  Cl-  Cl3  1  0.87795000  0.81513333  0.55460000  1.0
  Cl-  Cl3  1  0.37795000  0.14846667  0.89080000  1.0
  Cl-  Cl3  1  0.37795000  0.48180000  0.89080000  1.0
  Cl-  Cl3  1  0.37795000  0.81513333  0.89080000  1.0
  Cl-  Cl3  1  0.87795000  0.14846667  0.89080000  1.0
  Cl-  Cl3  1  0.87795000  0.48180000  0.89080000  1.0
  Cl-  Cl3  1  0.87795000  0.81513333  0.89080000  1.0
  Cl-  Cl3  1  0.12205000  0.29693333  0.44540000  1.0
  Cl-  Cl3  1  0.12205000  0.63026667  0.44540000  1.0
  Cl-  Cl3  1  0.12205000  0.96360000  0.44540000  1.0
  Cl-  Cl3  1  0.62205000  0.29693333  0.44540000  1.0
  Cl-  Cl3  1  0.62205000  0.63026667  0.44540000  1.0
  Cl-  Cl3  1  0.62205000  0.96360000  0.44540000  1.0
  Cl-  Cl3  1  0.12205000  0.18486667  0.44540000  1.0
  Cl-  Cl3  1  0.12205000  0.51820000  0.44540000  1.0
  Cl-  Cl3  1  0.12205000  0.85153333  0.44540000  1.0
  Cl-  Cl3  1  0.62205000  0.18486667  0.44540000  1.0
  Cl-  Cl3  1  0.62205000  0.51820000  0.44540000  1.0
  Cl-  Cl3  1  0.62205000  0.85153333  0.44540000  1.0
  Cl-  Cl3  1  0.12205000  0.18486667  0.10920000  1.0
  Cl-  Cl3  1  0.12205000  0.51820000  0.10920000  1.0
  Cl-  Cl3  1  0.12205000  0.85153333  0.10920000  1.0
  Cl-  Cl3  1  0.62205000  0.18486667  0.10920000  1.0
  Cl-  Cl3  1  0.62205000  0.51820000  0.10920000  1.0
  Cl-  Cl3  1  0.62205000  0.85153333  0.10920000  1.0
