# generated using pymatgen
data_Li2MgTi3O8
_symmetry_space_group_name_H-M   'P 1'
_cell_length_a   25.14180000
_cell_length_b   8.38060000
_cell_length_c   8.38060000
_cell_angle_alpha   90.00000000
_cell_angle_beta   90.00000000
_cell_angle_gamma   90.00000000
_symmetry_Int_Tables_number   1
_chemical_formula_structural   Li2MgTi3O8
_chemical_formula_sum   'Li24 Mg12 Ti36 O96'
_cell_volume   1765.82065491
_cell_formula_units_Z   12
loop_
 _symmetry_equiv_pos_site_id
 _symmetry_equiv_pos_as_xyz
  1  'x, y, z'
loop_
 _atom_type_symbol
 _atom_type_oxidation_number
  Li+  1.0
  Mg2+  2.0
  Ti4+  4.0
  O2-  -2.0
loop_
 _atom_site_type_symbol
 _atom_site_label
 _atom_site_symmetry_multiplicity
 _atom_site_fract_x
 _atom_site_fract_y
 _atom_site_fract_z
 _atom_site_occupancy
  Li+  Li0  1  0.29166667  0.37500000  0.12500000  1.0
  Li+  Li0  1  0.62500000  0.37500000  0.12500000  1.0
  Li+  Li0  1  0.95833333  0.37500000  0.12500000  1.0
  Li+  Li1  1  0.04166667  0.87500000  0.37500000  1.0
  Li+  Li1  1  0.37500000  0.87500000  0.37500000  1.0
  Li+  Li1  1  0.70833333  0.87500000  0.37500000  1.0
  Li+  Li2  1  0.12500000  0.12500000  0.87500000  1.0
  Li+  Li2  1  0.45833333  0.12500000  0.87500000  1.0
  Li+  Li2  1  0.79166667  0.12500000  0.87500000  1.0
  Li+  Li3  1  0.20833333  0.62500000  0.62500000  1.0
  Li+  Li3  1  0.54166667  0.62500000  0.62500000  1.0
  Li+  Li3  1  0.87500000  0.62500000  0.62500000  1.0
  Li+  Li4  1  0.08333333  0.75000000  0.75000000  1.0
  Li+  Li4  1  0.41666667  0.75000000  0.75000000  1.0
  Li+  Li4  1  0.75000000  0.75000000  0.75000000  1.0
  Li+  Li5  1  0.25000000  0.25000000  0.75000000  1.0
  Li+  Li5  1  0.58333333  0.25000000  0.75000000  1.0
  Li+  Li5  1  0.91666667  0.25000000  0.75000000  1.0
  Li+  Li6  1  0.25000000  0.75000000  0.25000000  1.0
  Li+  Li6  1  0.58333333  0.75000000  0.25000000  1.0
  Li+  Li6  1  0.91666667  0.75000000  0.25000000  1.0
  Li+  Li7  1  0.08333333  0.25000000  0.25000000  1.0
  Li+  Li7  1  0.41666667  0.25000000  0.25000000  1.0
  Li+  Li7  1  0.75000000  0.25000000  0.25000000  1.0
  Mg2+  Mg8  1  0.16666667  0.00000000  0.50000000  1.0
  Mg2+  Mg8  1  0.50000000  0.00000000  0.50000000  1.0
  Mg2+  Mg8  1  0.83333333  0.00000000  0.50000000  1.0
  Mg2+  Mg9  1  0.00000000  0.50000000  0.50000000  1.0
  Mg2+  Mg9  1  0.33333333  0.50000000  0.50000000  1.0
  Mg2+  Mg9  1  0.66666667  0.50000000  0.50000000  1.0
  Mg2+  Mg10  1  0.16666667  0.50000000  0.00000000  1.0
  Mg2+  Mg10  1  0.50000000  0.50000000  0.00000000  1.0
  Mg2+  Mg10  1  0.83333333  0.50000000  0.00000000  1.0
  Mg2+  Mg11  1  0.00000000  0.00000000  0.00000000  1.0
  Mg2+  Mg11  1  0.33333333  0.00000000  0.00000000  1.0
  Mg2+  Mg11  1  0.66666667  0.00000000  0.00000000  1.0
  Ti4+  Ti1  1  0.04373333  0.11890000  0.62500000  1.0
  Ti4+  Ti1  1  0.37706667  0.11890000  0.62500000  1.0
  Ti4+  Ti1  1  0.71040000  0.11890000  0.62500000  1.0
  Ti4+  Ti1  1  0.28960000  0.61890000  0.87500000  1.0
  Ti4+  Ti1  1  0.62293333  0.61890000  0.87500000  1.0
  Ti4+  Ti1  1  0.95626667  0.61890000  0.87500000  1.0
  Ti4+  Ti1  1  0.20630000  0.87500000  0.86880000  1.0
  Ti4+  Ti1  1  0.53963333  0.87500000  0.86880000  1.0
  Ti4+  Ti1  1  0.87296667  0.87500000  0.86880000  1.0
  Ti4+  Ti1  1  0.12703333  0.37500000  0.63120000  1.0
  Ti4+  Ti1  1  0.46036667  0.37500000  0.63120000  1.0
  Ti4+  Ti1  1  0.79370000  0.37500000  0.63120000  1.0
  Ti4+  Ti1  1  0.12500000  0.63120000  0.38110000  1.0
  Ti4+  Ti1  1  0.45833333  0.63120000  0.38110000  1.0
  Ti4+  Ti1  1  0.79166667  0.63120000  0.38110000  1.0
  Ti4+  Ti1  1  0.20833333  0.13120000  0.11890000  1.0
  Ti4+  Ti1  1  0.54166667  0.13120000  0.11890000  1.0
  Ti4+  Ti1  1  0.87500000  0.13120000  0.11890000  1.0
  Ti4+  Ti1  1  0.21040000  0.38110000  0.37500000  1.0
  Ti4+  Ti1  1  0.54373333  0.38110000  0.37500000  1.0
  Ti4+  Ti1  1  0.87706667  0.38110000  0.37500000  1.0
  Ti4+  Ti1  1  0.12293333  0.88110000  0.12500000  1.0
  Ti4+  Ti1  1  0.45626667  0.88110000  0.12500000  1.0
  Ti4+  Ti1  1  0.78960000  0.88110000  0.12500000  1.0
  Ti4+  Ti1  1  0.03963333  0.62500000  0.13120000  1.0
  Ti4+  Ti1  1  0.37296667  0.62500000  0.13120000  1.0
  Ti4+  Ti1  1  0.70630000  0.62500000  0.13120000  1.0
  Ti4+  Ti1  1  0.29370000  0.12500000  0.36880000  1.0
  Ti4+  Ti1  1  0.62703333  0.12500000  0.36880000  1.0
  Ti4+  Ti1  1  0.96036667  0.12500000  0.36880000  1.0
  Ti4+  Ti1  1  0.29166667  0.86880000  0.61890000  1.0
  Ti4+  Ti1  1  0.62500000  0.86880000  0.61890000  1.0
  Ti4+  Ti1  1  0.95833333  0.86880000  0.61890000  1.0
  Ti4+  Ti1  1  0.04166667  0.36880000  0.88110000  1.0
  Ti4+  Ti1  1  0.37500000  0.36880000  0.88110000  1.0
  Ti4+  Ti1  1  0.70833333  0.36880000  0.88110000  1.0
  O2-  O1  1  0.21293333  0.13880000  0.36120000  1.0
  O2-  O1  1  0.54626667  0.13880000  0.36120000  1.0
  O2-  O1  1  0.87960000  0.13880000  0.36120000  1.0
  O2-  O1  1  0.12040000  0.63880000  0.13880000  1.0
  O2-  O1  1  0.45373333  0.63880000  0.13880000  1.0
  O2-  O1  1  0.78706667  0.63880000  0.13880000  1.0
  O2-  O1  1  0.04626667  0.36120000  0.63880000  1.0
  O2-  O1  1  0.37960000  0.36120000  0.63880000  1.0
  O2-  O1  1  0.71293333  0.36120000  0.63880000  1.0
  O2-  O1  1  0.28706667  0.86120000  0.86120000  1.0
  O2-  O1  1  0.62040000  0.86120000  0.86120000  1.0
  O2-  O1  1  0.95373333  0.86120000  0.86120000  1.0
  O2-  O1  1  0.03706667  0.61120000  0.88880000  1.0
  O2-  O1  1  0.37040000  0.61120000  0.88880000  1.0
  O2-  O1  1  0.70373333  0.61120000  0.88880000  1.0
  O2-  O1  1  0.20373333  0.88880000  0.11120000  1.0
  O2-  O1  1  0.53706667  0.88880000  0.11120000  1.0
  O2-  O1  1  0.87040000  0.88880000  0.11120000  1.0
  O2-  O1  1  0.29626667  0.11120000  0.61120000  1.0
  O2-  O1  1  0.62960000  0.11120000  0.61120000  1.0
  O2-  O1  1  0.96293333  0.11120000  0.61120000  1.0
  O2-  O1  1  0.12960000  0.38880000  0.38880000  1.0
  O2-  O1  1  0.46293333  0.38880000  0.38880000  1.0
  O2-  O1  1  0.79626667  0.38880000  0.38880000  1.0
  O2-  O2  1  0.03626667  0.89570000  0.62750000  1.0
  O2-  O2  1  0.36960000  0.89570000  0.62750000  1.0
  O2-  O2  1  0.70293333  0.89570000  0.62750000  1.0
  O2-  O2  1  0.29706667  0.39570000  0.87250000  1.0
  O2-  O2  1  0.63040000  0.39570000  0.87250000  1.0
  O2-  O2  1  0.96373333  0.39570000  0.87250000  1.0
  O2-  O2  1  0.13190000  0.87250000  0.89120000  1.0
  O2-  O2  1  0.46523333  0.87250000  0.89120000  1.0
  O2-  O2  1  0.79856667  0.87250000  0.89120000  1.0
  O2-  O2  1  0.20143333  0.37250000  0.60880000  1.0
  O2-  O2  1  0.53476667  0.37250000  0.60880000  1.0
  O2-  O2  1  0.86810000  0.37250000  0.60880000  1.0
  O2-  O2  1  0.12416667  0.60880000  0.60430000  1.0
  O2-  O2  1  0.45750000  0.60880000  0.60430000  1.0
  O2-  O2  1  0.79083333  0.60880000  0.60430000  1.0
  O2-  O2  1  0.20916667  0.10880000  0.89570000  1.0
  O2-  O2  1  0.54250000  0.10880000  0.89570000  1.0
  O2-  O2  1  0.87583333  0.10880000  0.89570000  1.0
  O2-  O2  1  0.20293333  0.60430000  0.37250000  1.0
  O2-  O2  1  0.53626667  0.60430000  0.37250000  1.0
  O2-  O2  1  0.86960000  0.60430000  0.37250000  1.0
  O2-  O2  1  0.13040000  0.10430000  0.12750000  1.0
  O2-  O2  1  0.46373333  0.10430000  0.12750000  1.0
  O2-  O2  1  0.79706667  0.10430000  0.12750000  1.0
  O2-  O2  1  0.29856667  0.62750000  0.10880000  1.0
  O2-  O2  1  0.63190000  0.62750000  0.10880000  1.0
  O2-  O2  1  0.96523333  0.62750000  0.10880000  1.0
  O2-  O2  1  0.03476667  0.12750000  0.39120000  1.0
  O2-  O2  1  0.36810000  0.12750000  0.39120000  1.0
  O2-  O2  1  0.70143333  0.12750000  0.39120000  1.0
  O2-  O2  1  0.29083333  0.89120000  0.39570000  1.0
  O2-  O2  1  0.62416667  0.89120000  0.39570000  1.0
  O2-  O2  1  0.95750000  0.89120000  0.39570000  1.0
  O2-  O2  1  0.04250000  0.39120000  0.10430000  1.0
  O2-  O2  1  0.37583333  0.39120000  0.10430000  1.0
  O2-  O2  1  0.70916667  0.39120000  0.10430000  1.0
  O2-  O2  1  0.11810000  0.14120000  0.62250000  1.0
  O2-  O2  1  0.45143333  0.14120000  0.62250000  1.0
  O2-  O2  1  0.78476667  0.14120000  0.62250000  1.0
  O2-  O2  1  0.28476667  0.35880000  0.37750000  1.0
  O2-  O2  1  0.61810000  0.35880000  0.37750000  1.0
  O2-  O2  1  0.95143333  0.35880000  0.37750000  1.0
  O2-  O2  1  0.21523333  0.64120000  0.87750000  1.0
  O2-  O2  1  0.54856667  0.64120000  0.87750000  1.0
  O2-  O2  1  0.88190000  0.64120000  0.87750000  1.0
  O2-  O2  1  0.04856667  0.85880000  0.12250000  1.0
  O2-  O2  1  0.38190000  0.85880000  0.12250000  1.0
  O2-  O2  1  0.71523333  0.85880000  0.12250000  1.0
  O2-  O2  1  0.11960000  0.37750000  0.85430000  1.0
  O2-  O2  1  0.45293333  0.37750000  0.85430000  1.0
  O2-  O2  1  0.78626667  0.37750000  0.85430000  1.0
  O2-  O2  1  0.21373333  0.87750000  0.64570000  1.0
  O2-  O2  1  0.54706667  0.87750000  0.64570000  1.0
  O2-  O2  1  0.88040000  0.87750000  0.64570000  1.0
  O2-  O2  1  0.04706667  0.62250000  0.35430000  1.0
  O2-  O2  1  0.38040000  0.62250000  0.35430000  1.0
  O2-  O2  1  0.71373333  0.62250000  0.35430000  1.0
  O2-  O2  1  0.28626667  0.12250000  0.14570000  1.0
  O2-  O2  1  0.61960000  0.12250000  0.14570000  1.0
  O2-  O2  1  0.95293333  0.12250000  0.14570000  1.0
  O2-  O2  1  0.12583333  0.85430000  0.35880000  1.0
  O2-  O2  1  0.45916667  0.85430000  0.35880000  1.0
  O2-  O2  1  0.79250000  0.85430000  0.35880000  1.0
  O2-  O2  1  0.29250000  0.64570000  0.64120000  1.0
  O2-  O2  1  0.62583333  0.64570000  0.64120000  1.0
  O2-  O2  1  0.95916667  0.64570000  0.64120000  1.0
  O2-  O2  1  0.20750000  0.35430000  0.14120000  1.0
  O2-  O2  1  0.54083333  0.35430000  0.14120000  1.0
  O2-  O2  1  0.87416667  0.35430000  0.14120000  1.0
  O2-  O2  1  0.04083333  0.14570000  0.85880000  1.0
  O2-  O2  1  0.37416667  0.14570000  0.85880000  1.0
  O2-  O2  1  0.70750000  0.14570000  0.85880000  1.0
