# generated using pymatgen
data_LiN
_symmetry_space_group_name_H-M   'P 1'
_cell_length_a   32.85000000
_cell_length_b   11.64000000
_cell_length_c   10.95000000
_cell_angle_alpha   90.00000000
_cell_angle_beta   60.00000000
_cell_angle_gamma   90.00000000
_symmetry_Int_Tables_number   1
_chemical_formula_structural   LiN
_chemical_formula_sum   'Li81 N81'
_cell_volume   3626.04429533
_cell_formula_units_Z   81
loop_
 _symmetry_equiv_pos_site_id
 _symmetry_equiv_pos_as_xyz
  1  'x, y, z'
loop_
 _atom_type_symbol
 _atom_type_oxidation_number
  Li+  1.0
  N-  -1.0
loop_
 _atom_site_type_symbol
 _atom_site_label
 _atom_site_symmetry_multiplicity
 _atom_site_fract_x
 _atom_site_fract_y
 _atom_site_fract_z
 _atom_site_occupancy
  Li+  Li0  1  0.03703704  0.00000000  0.52777778  1.0
  Li+  Li1  1  0.37037037  0.00000000  0.52777778  1.0
  Li+  Li2  1  0.70370370  0.00000000  0.52777778  1.0
  Li+  Li3  1  0.03729468  0.33774053  0.52928368  1.0
  Li+  Li4  1  0.37037037  0.33333333  0.52777778  1.0
  Li+  Li5  1  0.70370370  0.33333333  0.52777778  1.0
  Li+  Li6  1  0.03703704  0.00000000  0.19444444  1.0
  Li+  Li7  1  0.37037037  0.00000000  0.19444444  1.0
  Li+  Li8  1  0.70370370  0.00000000  0.19444444  1.0
  Li+  Li9  1  0.03703704  0.00000000  0.86111111  1.0
  Li+  Li10  1  0.37037037  0.00000000  0.86111111  1.0
  Li+  Li11  1  0.70370370  0.00000000  0.86111111  1.0
  Li+  Li12  1  0.03703704  0.66666667  0.86111111  1.0
  Li+  Li13  1  0.37037037  0.66666667  0.86111111  1.0
  Li+  Li14  1  0.70370370  0.66666667  0.86111111  1.0
  Li+  Li15  1  0.03703704  0.33333333  0.86111111  1.0
  Li+  Li16  1  0.37344011  0.33943718  0.86029862  1.0
  Li+  Li17  1  0.70533148  0.33653720  0.85944384  1.0
  Li+  Li18  1  0.14814815  0.00000000  0.52777778  1.0
  Li+  Li19  1  0.48148148  0.00000000  0.52777778  1.0
  Li+  Li20  1  0.81481481  0.00000000  0.52777778  1.0
  Li+  Li21  1  0.14814815  0.00000000  0.19444444  1.0
  Li+  Li22  1  0.48148148  0.00000000  0.19444444  1.0
  Li+  Li23  1  0.81481481  0.00000000  0.19444444  1.0
  Li+  Li24  1  0.14814815  0.00000000  0.86111111  1.0
  Li+  Li25  1  0.48148148  0.00000000  0.86111111  1.0
  Li+  Li26  1  0.81481481  0.00000000  0.86111111  1.0
  Li+  Li27  1  0.14814815  0.66666667  0.86111111  1.0
  Li+  Li28  1  0.48148148  0.66666667  0.86111111  1.0
  Li+  Li29  1  0.81481481  0.66666667  0.86111111  1.0
  Li+  Li30  1  0.26108065  0.66391073  0.52485310  1.0
  Li+  Li31  1  0.58933689  0.66497535  0.52942614  1.0
  Li+  Li32  1  0.92592593  0.66666667  0.52777778  1.0
  Li+  Li33  1  0.25925926  0.66666667  0.19444444  1.0
  Li+  Li34  1  0.59259259  0.66666667  0.19444444  1.0
  Li+  Li35  1  0.92592593  0.66666667  0.19444444  1.0
  Li+  Li36  1  0.26060776  0.33914898  0.19045792  1.0
  Li+  Li37  1  0.59259259  0.33333333  0.19444444  1.0
  Li+  Li38  1  0.92592593  0.33333333  0.19444444  1.0
  Li+  Li39  1  0.25925926  0.33333333  0.86111111  1.0
  Li+  Li40  1  0.59228102  0.32999769  0.85868144  1.0
  Li+  Li41  1  0.92592593  0.33333333  0.86111111  1.0
  Li+  Li42  1  0.07319504  0.66910840  0.63859685  1.0
  Li+  Li43  1  0.40924556  0.66271501  0.64156330  1.0
  Li+  Li44  1  0.74074074  0.66666667  0.63888889  1.0
  Li+  Li45  1  0.07407407  0.33333333  0.30555556  1.0
  Li+  Li46  1  0.40579825  0.33440378  0.30572583  1.0
  Li+  Li47  1  0.74102128  0.33565096  0.30752418  1.0
  Li+  Li48  1  0.07407407  0.33333333  0.97222222  1.0
  Li+  Li49  1  0.40924711  0.33344974  0.97201530  1.0
  Li+  Li50  1  0.74162787  0.33731566  0.96863295  1.0
  Li+  Li51  1  0.18518519  0.66666667  0.63888889  1.0
  Li+  Li52  1  0.51886629  0.66666667  0.63950495  1.0
  Li+  Li53  1  0.85185185  0.66666667  0.63888889  1.0
  Li+  Li54  1  0.18518519  0.33333333  0.63888889  1.0
  Li+  Li55  1  0.52023688  0.33356513  0.63969981  1.0
  Li+  Li56  1  0.85185185  0.33333333  0.63888889  1.0
  Li+  Li57  1  0.18518519  0.33333333  0.30555556  1.0
  Li+  Li58  1  0.51851852  0.33333333  0.30555556  1.0
  Li+  Li59  1  0.85185185  0.33333333  0.30555556  1.0
  Li+  Li60  1  0.18518519  0.00000000  0.97222222  1.0
  Li+  Li61  1  0.51903084  0.99738651  0.97419943  1.0
  Li+  Li62  1  0.85058460  0.00055483  0.97343835  1.0
  Li+  Li63  1  0.18518519  0.66666667  0.97222222  1.0
  Li+  Li64  1  0.51851852  0.66666667  0.97222222  1.0
  Li+  Li65  1  0.85185185  0.66666667  0.97222222  1.0
  Li+  Li66  1  0.29629630  0.00000000  0.63888889  1.0
  Li+  Li67  1  0.62962963  0.00000000  0.63888889  1.0
  Li+  Li68  1  0.96296296  0.00000000  0.63888889  1.0
  Li+  Li69  1  0.29629630  0.66666667  0.63888889  1.0
  Li+  Li70  1  0.62962963  0.66666667  0.63888889  1.0
  Li+  Li71  1  0.96296296  0.66666667  0.63888889  1.0
  Li+  Li72  1  0.29629630  0.00000000  0.30555556  1.0
  Li+  Li73  1  0.62962963  0.00000000  0.30555556  1.0
  Li+  Li74  1  0.96059132  0.99881142  0.30590257  1.0
  Li+  Li75  1  0.29629630  0.33333333  0.30555556  1.0
  Li+  Li76  1  0.62962963  0.33333333  0.30555556  1.0
  Li+  Li77  1  0.96296296  0.33333333  0.30555556  1.0
  Li+  Li78  1  0.29629630  0.66666667  0.97222222  1.0
  Li+  Li79  1  0.62962963  0.66666667  0.97222222  1.0
  Li+  Li80  1  0.96296296  0.66666667  0.97222222  1.0
  N-  N81  1  0.00000000  0.00000000  0.75000000  1.0
  N-  N82  1  0.33108354  0.00231663  0.74689393  1.0
  N-  N83  1  0.66705468  0.99774042  0.75428986  1.0
  N-  N84  1  0.00000000  0.66666667  0.75000000  1.0
  N-  N85  1  0.33333333  0.66666667  0.75000000  1.0
  N-  N86  1  0.66666667  0.66666667  0.75000000  1.0
  N-  N87  1  0.99867925  0.33560114  0.74698280  1.0
  N-  N88  1  0.33333333  0.33333333  0.75000000  1.0
  N-  N89  1  0.66469838  0.33542852  0.74639863  1.0
  N-  N90  1  0.00000000  0.00000000  0.41666667  1.0
  N-  N91  1  0.33421873  0.99941109  0.41283709  1.0
  N-  N92  1  0.66666667  0.00000000  0.41666667  1.0
  N-  N93  1  0.00000000  0.66666667  0.41666667  1.0
  N-  N94  1  0.33333333  0.66666667  0.41666667  1.0
  N-  N95  1  0.66802635  0.66528150  0.41702339  1.0
  N-  N96  1  0.00000000  0.33333333  0.41666667  1.0
  N-  N97  1  0.33297289  0.33851900  0.41933228  1.0
  N-  N98  1  0.66666667  0.33333333  0.41666667  1.0
  N-  N99  1  0.00000000  0.00000000  0.08333333  1.0
  N-  N100  1  0.33333333  0.00000000  0.08333333  1.0
  N-  N101  1  0.66666667  0.00000000  0.08333333  1.0
  N-  N102  1  0.00000000  0.66666667  0.08333333  1.0
  N-  N103  1  0.33609226  0.66343139  0.07866942  1.0
  N-  N104  1  0.66666667  0.66666667  0.08333333  1.0
  N-  N105  1  0.00131926  0.33286505  0.08415205  1.0
  N-  N106  1  0.33333333  0.33333333  0.08333333  1.0
  N-  N107  1  0.66666667  0.33333333  0.08333333  1.0
  N-  N108  1  0.11111111  0.00000000  0.75000000  1.0
  N-  N109  1  0.44444444  0.00000000  0.75000000  1.0
  N-  N110  1  0.77777778  0.00000000  0.75000000  1.0
  N-  N111  1  0.11111111  0.66666667  0.75000000  1.0
  N-  N112  1  0.44444444  0.66666667  0.75000000  1.0
  N-  N113  1  0.77777778  0.66666667  0.75000000  1.0
  N-  N114  1  0.11171298  0.33179524  0.74887563  1.0
  N-  N115  1  0.44354323  0.32801370  0.75139654  1.0
  N-  N116  1  0.77777778  0.33333333  0.75000000  1.0
  N-  N117  1  0.11350300  0.99700018  0.41630985  1.0
  N-  N118  1  0.44444444  0.00000000  0.41666667  1.0
  N-  N119  1  0.77777778  0.00000000  0.41666667  1.0
  N-  N120  1  0.11111111  0.66666667  0.41666667  1.0
  N-  N121  1  0.44444444  0.66666667  0.41666667  1.0
  N-  N122  1  0.77777778  0.66666667  0.41666667  1.0
  N-  N123  1  0.11451455  0.33059014  0.42063944  1.0
  N-  N124  1  0.44729724  0.33464038  0.41692710  1.0
  N-  N125  1  0.77777778  0.33333333  0.41666667  1.0
  N-  N126  1  0.10930648  0.99497392  0.08131689  1.0
  N-  N127  1  0.44444444  0.00000000  0.08333333  1.0
  N-  N128  1  0.77777778  0.00000000  0.08333333  1.0
  N-  N129  1  0.11111111  0.66666667  0.08333333  1.0
  N-  N130  1  0.44422435  0.66812720  0.08509016  1.0
  N-  N131  1  0.77626943  0.66918328  0.08476876  1.0
  N-  N132  1  0.11111111  0.33333333  0.08333333  1.0
  N-  N133  1  0.44444444  0.33333333  0.08333333  1.0
  N-  N134  1  0.77777778  0.33333333  0.08333333  1.0
  N-  N135  1  0.22222222  0.00000000  0.75000000  1.0
  N-  N136  1  0.55555556  0.00000000  0.75000000  1.0
  N-  N137  1  0.88888889  0.00000000  0.75000000  1.0
  N-  N138  1  0.22222222  0.66666667  0.75000000  1.0
  N-  N139  1  0.55555556  0.66666667  0.75000000  1.0
  N-  N140  1  0.89008260  0.66714295  0.74670873  1.0
  N-  N141  1  0.22222222  0.33333333  0.75000000  1.0
  N-  N142  1  0.55555556  0.33333333  0.75000000  1.0
  N-  N143  1  0.88816239  0.33247536  0.75267497  1.0
  N-  N144  1  0.22090132  0.00105492  0.42233766  1.0
  N-  N145  1  0.55555556  0.00000000  0.41666667  1.0
  N-  N146  1  0.88888889  0.00000000  0.41666667  1.0
  N-  N147  1  0.22222222  0.66666667  0.41666667  1.0
  N-  N148  1  0.55555556  0.66666667  0.41666667  1.0
  N-  N149  1  0.88888889  0.66666667  0.41666667  1.0
  N-  N150  1  0.22222222  0.33333333  0.41666667  1.0
  N-  N151  1  0.55556381  0.33239444  0.41678790  1.0
  N-  N152  1  0.88888889  0.33333333  0.41666667  1.0
  N-  N153  1  0.22222222  0.00000000  0.08333333  1.0
  N-  N154  1  0.55555556  0.00000000  0.08333333  1.0
  N-  N155  1  0.88888889  0.00000000  0.08333333  1.0
  N-  N156  1  0.22222222  0.66666667  0.08333333  1.0
  N-  N157  1  0.55812455  0.66808010  0.08468965  1.0
  N-  N158  1  0.88888889  0.66666667  0.08333333  1.0
  N-  N159  1  0.22222222  0.33333333  0.08333333  1.0
  N-  N160  1  0.55555556  0.33333333  0.08333333  1.0
  N-  N161  1  0.88888889  0.33333333  0.08333333  1.0
