# generated using pymatgen
data_LiN
_symmetry_space_group_name_H-M   'P 1'
_cell_length_a   11.03330446
_cell_length_b   33.09991337
_cell_length_c   11.72855378
_cell_angle_alpha   90.00000000
_cell_angle_beta   90.00000000
_cell_angle_gamma   120.00000000
_symmetry_Int_Tables_number   1
_chemical_formula_structural   LiN
_chemical_formula_sum   'Li81 N81'
_cell_volume   3709.43320270
_cell_formula_units_Z   81
loop_
 _symmetry_equiv_pos_site_id
 _symmetry_equiv_pos_as_xyz
  1  'x, y, z'
loop_
 _atom_type_symbol
 _atom_type_oxidation_number
  Li+  1.0
  N-  -1.0
loop_
 _atom_site_type_symbol
 _atom_site_label
 _atom_site_symmetry_multiplicity
 _atom_site_fract_x
 _atom_site_fract_y
 _atom_site_fract_z
 _atom_site_occupancy
  Li+  Li0  1  0.77777778  0.62962963  0.00000000  1.0
  Li+  Li1  1  0.77777778  0.29629630  0.00000000  1.0
  Li+  Li2  1  0.77777778  0.96296296  0.00000000  1.0
  Li+  Li3  1  0.77777778  0.62962963  0.66666667  1.0
  Li+  Li4  1  0.77777778  0.29629630  0.66666667  1.0
  Li+  Li5  1  0.77777778  0.96296296  0.66666667  1.0
  Li+  Li6  1  0.44444444  0.62962963  0.00000000  1.0
  Li+  Li7  1  0.44444444  0.29629630  0.00000000  1.0
  Li+  Li8  1  0.44444444  0.96296296  0.00000000  1.0
  Li+  Li9  1  0.11111111  0.62962963  0.00000000  1.0
  Li+  Li10  1  0.11111111  0.29629630  0.00000000  1.0
  Li+  Li11  1  0.11111111  0.96296296  0.00000000  1.0
  Li+  Li12  1  0.11111111  0.62962963  0.33333333  1.0
  Li+  Li13  1  0.11111111  0.29629630  0.33333333  1.0
  Li+  Li14  1  0.11111111  0.96296296  0.33333333  1.0
  Li+  Li15  1  0.11111111  0.62962963  0.66666667  1.0
  Li+  Li16  1  0.11111111  0.29629630  0.66666667  1.0
  Li+  Li17  1  0.11111111  0.96296296  0.66666667  1.0
  Li+  Li18  1  0.77777778  0.51851852  0.00000000  1.0
  Li+  Li19  1  0.77777778  0.18518519  0.00000000  1.0
  Li+  Li20  1  0.77777778  0.85185185  0.00000000  1.0
  Li+  Li21  1  0.44444444  0.51851852  0.00000000  1.0
  Li+  Li22  1  0.44444444  0.18518519  0.00000000  1.0
  Li+  Li23  1  0.44444444  0.85185185  0.00000000  1.0
  Li+  Li24  1  0.11111111  0.51851852  0.00000000  1.0
  Li+  Li25  1  0.11111111  0.18518519  0.00000000  1.0
  Li+  Li26  1  0.11111111  0.85185185  0.00000000  1.0
  Li+  Li27  1  0.11111111  0.51851852  0.33333333  1.0
  Li+  Li28  1  0.11111111  0.18518519  0.33333333  1.0
  Li+  Li29  1  0.11111111  0.85185185  0.33333333  1.0
  Li+  Li30  1  0.77777778  0.40740741  0.33333333  1.0
  Li+  Li31  1  0.77777778  0.07407407  0.33333333  1.0
  Li+  Li32  1  0.77777778  0.74074074  0.33333333  1.0
  Li+  Li33  1  0.44444444  0.40740741  0.33333333  1.0
  Li+  Li34  1  0.44444444  0.07407407  0.33333333  1.0
  Li+  Li35  1  0.44444444  0.74074074  0.33333333  1.0
  Li+  Li36  1  0.44444444  0.40740741  0.66666667  1.0
  Li+  Li37  1  0.44444444  0.07407407  0.66666667  1.0
  Li+  Li38  1  0.44444444  0.74074074  0.66666667  1.0
  Li+  Li39  1  0.11111111  0.40740741  0.66666667  1.0
  Li+  Li40  1  0.11111111  0.07407407  0.66666667  1.0
  Li+  Li41  1  0.11111111  0.74074074  0.66666667  1.0
  Li+  Li42  1  0.88888889  0.59259259  0.33333333  1.0
  Li+  Li43  1  0.88888889  0.25925926  0.33333333  1.0
  Li+  Li44  1  0.88888889  0.92592593  0.33333333  1.0
  Li+  Li45  1  0.55555556  0.59259259  0.66666667  1.0
  Li+  Li46  1  0.55555556  0.25925926  0.66666667  1.0
  Li+  Li47  1  0.55555556  0.92592593  0.66666667  1.0
  Li+  Li48  1  0.22222222  0.59259259  0.66666667  1.0
  Li+  Li49  1  0.22222222  0.25925926  0.66666667  1.0
  Li+  Li50  1  0.22222222  0.92592593  0.66666667  1.0
  Li+  Li51  1  0.88888889  0.48148148  0.33333333  1.0
  Li+  Li52  1  0.88888889  0.14814815  0.33333333  1.0
  Li+  Li53  1  0.88888889  0.81481481  0.33333333  1.0
  Li+  Li54  1  0.88888889  0.48148148  0.66666667  1.0
  Li+  Li55  1  0.88888889  0.14814815  0.66666667  1.0
  Li+  Li56  1  0.88888889  0.81481481  0.66666667  1.0
  Li+  Li57  1  0.55555556  0.48148148  0.66666667  1.0
  Li+  Li58  1  0.55555556  0.14814815  0.66666667  1.0
  Li+  Li59  1  0.55555556  0.81481481  0.66666667  1.0
  Li+  Li60  1  0.22222222  0.48148148  0.00000000  1.0
  Li+  Li61  1  0.22222222  0.14814815  0.00000000  1.0
  Li+  Li62  1  0.22222222  0.81481481  0.00000000  1.0
  Li+  Li63  1  0.22222222  0.48148148  0.33333333  1.0
  Li+  Li64  1  0.22222222  0.14814815  0.33333333  1.0
  Li+  Li65  1  0.22222222  0.81481481  0.33333333  1.0
  Li+  Li66  1  0.88888889  0.37037037  0.00000000  1.0
  Li+  Li67  1  0.88888889  0.03703704  0.00000000  1.0
  Li+  Li68  1  0.88888889  0.70370370  0.00000000  1.0
  Li+  Li69  1  0.88888889  0.37037037  0.33333333  1.0
  Li+  Li70  1  0.88888889  0.03703704  0.33333333  1.0
  Li+  Li71  1  0.88888889  0.70370370  0.33333333  1.0
  Li+  Li72  1  0.55555556  0.37037037  0.00000000  1.0
  Li+  Li73  1  0.55555556  0.03703704  0.00000000  1.0
  Li+  Li74  1  0.55555556  0.70370370  0.00000000  1.0
  Li+  Li75  1  0.55555556  0.37037037  0.66666667  1.0
  Li+  Li76  1  0.55555556  0.03703704  0.66666667  1.0
  Li+  Li77  1  0.55555556  0.70370370  0.66666667  1.0
  Li+  Li78  1  0.22222222  0.37037037  0.33333333  1.0
  Li+  Li79  1  0.22222222  0.03703704  0.33333333  1.0
  Li+  Li80  1  0.22222222  0.70370370  0.33333333  1.0
  N-  N81  1  0.00000000  0.66666667  0.00000000  1.0
  N-  N82  1  0.00000000  0.33333333  0.00000000  1.0
  N-  N83  1  0.00000000  0.00000000  0.00000000  1.0
  N-  N84  1  0.00000000  0.66666667  0.33333333  1.0
  N-  N85  1  0.00000000  0.33333333  0.33333333  1.0
  N-  N86  1  0.00000000  0.00000000  0.33333333  1.0
  N-  N87  1  0.00000000  0.66666667  0.66666667  1.0
  N-  N88  1  0.00000000  0.33333333  0.66666667  1.0
  N-  N89  1  0.00000000  0.00000000  0.66666667  1.0
  N-  N90  1  0.66666667  0.66666667  0.00000000  1.0
  N-  N91  1  0.66666667  0.33333333  0.00000000  1.0
  N-  N92  1  0.66666667  0.00000000  0.00000000  1.0
  N-  N93  1  0.66666667  0.66666667  0.33333333  1.0
  N-  N94  1  0.66666667  0.33333333  0.33333333  1.0
  N-  N95  1  0.66666667  0.00000000  0.33333333  1.0
  N-  N96  1  0.66666667  0.66666667  0.66666667  1.0
  N-  N97  1  0.66666667  0.33333333  0.66666667  1.0
  N-  N98  1  0.66666667  0.00000000  0.66666667  1.0
  N-  N99  1  0.33333333  0.66666667  0.00000000  1.0
  N-  N100  1  0.33333333  0.33333333  0.00000000  1.0
  N-  N101  1  0.33333333  0.00000000  0.00000000  1.0
  N-  N102  1  0.33333333  0.66666667  0.33333333  1.0
  N-  N103  1  0.33333333  0.33333333  0.33333333  1.0
  N-  N104  1  0.33333333  0.00000000  0.33333333  1.0
  N-  N105  1  0.33333333  0.66666667  0.66666667  1.0
  N-  N106  1  0.33333333  0.33333333  0.66666667  1.0
  N-  N107  1  0.33333333  0.00000000  0.66666667  1.0
  N-  N108  1  0.00000000  0.55555556  0.00000000  1.0
  N-  N109  1  0.00000000  0.22222222  0.00000000  1.0
  N-  N110  1  0.00000000  0.88888889  0.00000000  1.0
  N-  N111  1  0.00000000  0.55555556  0.33333333  1.0
  N-  N112  1  0.00000000  0.22222222  0.33333333  1.0
  N-  N113  1  0.00000000  0.88888889  0.33333333  1.0
  N-  N114  1  0.00000000  0.55555556  0.66666667  1.0
  N-  N115  1  0.00000000  0.22222222  0.66666667  1.0
  N-  N116  1  0.00000000  0.88888889  0.66666667  1.0
  N-  N117  1  0.66666667  0.55555556  0.00000000  1.0
  N-  N118  1  0.66666667  0.22222222  0.00000000  1.0
  N-  N119  1  0.66666667  0.88888889  0.00000000  1.0
  N-  N120  1  0.66666667  0.55555556  0.33333333  1.0
  N-  N121  1  0.66666667  0.22222222  0.33333333  1.0
  N-  N122  1  0.66666667  0.88888889  0.33333333  1.0
  N-  N123  1  0.66666667  0.55555556  0.66666667  1.0
  N-  N124  1  0.66666667  0.22222222  0.66666667  1.0
  N-  N125  1  0.66666667  0.88888889  0.66666667  1.0
  N-  N126  1  0.33333333  0.55555556  0.00000000  1.0
  N-  N127  1  0.33333333  0.22222222  0.00000000  1.0
  N-  N128  1  0.33333333  0.88888889  0.00000000  1.0
  N-  N129  1  0.33333333  0.55555556  0.33333333  1.0
  N-  N130  1  0.33333333  0.22222222  0.33333333  1.0
  N-  N131  1  0.33333333  0.88888889  0.33333333  1.0
  N-  N132  1  0.33333333  0.55555556  0.66666667  1.0
  N-  N133  1  0.33333333  0.22222222  0.66666667  1.0
  N-  N134  1  0.33333333  0.88888889  0.66666667  1.0
  N-  N135  1  0.00000000  0.44444444  0.00000000  1.0
  N-  N136  1  0.00000000  0.11111111  0.00000000  1.0
  N-  N137  1  0.00000000  0.77777778  0.00000000  1.0
  N-  N138  1  0.00000000  0.44444444  0.33333333  1.0
  N-  N139  1  0.00000000  0.11111111  0.33333333  1.0
  N-  N140  1  0.00000000  0.77777778  0.33333333  1.0
  N-  N141  1  0.00000000  0.44444444  0.66666667  1.0
  N-  N142  1  0.00000000  0.11111111  0.66666667  1.0
  N-  N143  1  0.00000000  0.77777778  0.66666667  1.0
  N-  N144  1  0.66666667  0.44444444  0.00000000  1.0
  N-  N145  1  0.66666667  0.11111111  0.00000000  1.0
  N-  N146  1  0.66666667  0.77777778  0.00000000  1.0
  N-  N147  1  0.66666667  0.44444444  0.33333333  1.0
  N-  N148  1  0.66666667  0.11111111  0.33333333  1.0
  N-  N149  1  0.66666667  0.77777778  0.33333333  1.0
  N-  N150  1  0.66666667  0.44444444  0.66666667  1.0
  N-  N151  1  0.66666667  0.11111111  0.66666667  1.0
  N-  N152  1  0.66666667  0.77777778  0.66666667  1.0
  N-  N153  1  0.33333333  0.44444444  0.00000000  1.0
  N-  N154  1  0.33333333  0.11111111  0.00000000  1.0
  N-  N155  1  0.33333333  0.77777778  0.00000000  1.0
  N-  N156  1  0.33333333  0.44444444  0.33333333  1.0
  N-  N157  1  0.33333333  0.11111111  0.33333333  1.0
  N-  N158  1  0.33333333  0.77777778  0.33333333  1.0
  N-  N159  1  0.33333333  0.44444444  0.66666667  1.0
  N-  N160  1  0.33333333  0.11111111  0.66666667  1.0
  N-  N161  1  0.33333333  0.77777778  0.66666667  1.0
