# generated using pymatgen
data_LiN
_symmetry_space_group_name_H-M   'P 1'
_cell_length_a   32.85000000
_cell_length_b   10.95000000
_cell_length_c   11.64000000
_cell_angle_alpha   90.00000000
_cell_angle_beta   90.00000000
_cell_angle_gamma   120.00000000
_symmetry_Int_Tables_number   1
_chemical_formula_structural   LiN
_chemical_formula_sum   'Li81 N81'
_cell_volume   3626.04429533
_cell_formula_units_Z   81
loop_
 _symmetry_equiv_pos_site_id
 _symmetry_equiv_pos_as_xyz
  1  'x, y, z'
loop_
 _atom_type_symbol
 _atom_type_oxidation_number
  Li+  1.0
  N-  -1.0
loop_
 _atom_site_type_symbol
 _atom_site_label
 _atom_site_symmetry_multiplicity
 _atom_site_fract_x
 _atom_site_fract_y
 _atom_site_fract_z
 _atom_site_occupancy
  Li+  Li0  1  0.03703704  0.22222222  0.00000000  1.0
  Li+  Li0  1  0.37037037  0.22222222  0.00000000  1.0
  Li+  Li0  1  0.70370370  0.22222222  0.00000000  1.0
  Li+  Li1  1  0.03703704  0.22222222  0.66666667  1.0
  Li+  Li1  1  0.37037037  0.22222222  0.66666667  1.0
  Li+  Li1  1  0.70370370  0.22222222  0.66666667  1.0
  Li+  Li2  1  0.03703704  0.55555556  0.00000000  1.0
  Li+  Li2  1  0.37037037  0.55555556  0.00000000  1.0
  Li+  Li2  1  0.70370370  0.55555556  0.00000000  1.0
  Li+  Li3  1  0.03703704  0.88888889  0.00000000  1.0
  Li+  Li3  1  0.37037037  0.88888889  0.00000000  1.0
  Li+  Li3  1  0.70370370  0.88888889  0.00000000  1.0
  Li+  Li4  1  0.03703704  0.88888889  0.33333333  1.0
  Li+  Li4  1  0.37037037  0.88888889  0.33333333  1.0
  Li+  Li4  1  0.70370370  0.88888889  0.33333333  1.0
  Li+  Li5  1  0.03703704  0.88888889  0.66666667  1.0
  Li+  Li5  1  0.37037037  0.88888889  0.66666667  1.0
  Li+  Li5  1  0.70370370  0.88888889  0.66666667  1.0
  Li+  Li6  1  0.14814815  0.22222222  0.00000000  1.0
  Li+  Li6  1  0.48148148  0.22222222  0.00000000  1.0
  Li+  Li6  1  0.81481481  0.22222222  0.00000000  1.0
  Li+  Li7  1  0.14814815  0.55555556  0.00000000  1.0
  Li+  Li7  1  0.48148148  0.55555556  0.00000000  1.0
  Li+  Li7  1  0.81481481  0.55555556  0.00000000  1.0
  Li+  Li8  1  0.14814815  0.88888889  0.00000000  1.0
  Li+  Li8  1  0.48148148  0.88888889  0.00000000  1.0
  Li+  Li8  1  0.81481481  0.88888889  0.00000000  1.0
  Li+  Li9  1  0.14814815  0.88888889  0.33333333  1.0
  Li+  Li9  1  0.48148148  0.88888889  0.33333333  1.0
  Li+  Li9  1  0.81481481  0.88888889  0.33333333  1.0
  Li+  Li10  1  0.25925926  0.22222222  0.33333333  1.0
  Li+  Li10  1  0.59259259  0.22222222  0.33333333  1.0
  Li+  Li10  1  0.92592593  0.22222222  0.33333333  1.0
  Li+  Li11  1  0.25925926  0.55555556  0.33333333  1.0
  Li+  Li11  1  0.59259259  0.55555556  0.33333333  1.0
  Li+  Li11  1  0.92592593  0.55555556  0.33333333  1.0
  Li+  Li12  1  0.25925926  0.55555556  0.66666667  1.0
  Li+  Li12  1  0.59259259  0.55555556  0.66666667  1.0
  Li+  Li12  1  0.92592593  0.55555556  0.66666667  1.0
  Li+  Li13  1  0.25925926  0.88888889  0.66666667  1.0
  Li+  Li13  1  0.59259259  0.88888889  0.66666667  1.0
  Li+  Li13  1  0.92592593  0.88888889  0.66666667  1.0
  Li+  Li14  1  0.07407407  0.11111111  0.33333333  1.0
  Li+  Li14  1  0.40740741  0.11111111  0.33333333  1.0
  Li+  Li14  1  0.74074074  0.11111111  0.33333333  1.0
  Li+  Li15  1  0.07407407  0.44444444  0.66666667  1.0
  Li+  Li15  1  0.40740741  0.44444444  0.66666667  1.0
  Li+  Li15  1  0.74074074  0.44444444  0.66666667  1.0
  Li+  Li16  1  0.07407407  0.77777778  0.66666667  1.0
  Li+  Li16  1  0.40740741  0.77777778  0.66666667  1.0
  Li+  Li16  1  0.74074074  0.77777778  0.66666667  1.0
  Li+  Li17  1  0.18518519  0.11111111  0.33333333  1.0
  Li+  Li17  1  0.51851852  0.11111111  0.33333333  1.0
  Li+  Li17  1  0.85185185  0.11111111  0.33333333  1.0
  Li+  Li18  1  0.18518519  0.11111111  0.66666667  1.0
  Li+  Li18  1  0.51851852  0.11111111  0.66666667  1.0
  Li+  Li18  1  0.85185185  0.11111111  0.66666667  1.0
  Li+  Li19  1  0.18518519  0.44444444  0.66666667  1.0
  Li+  Li19  1  0.51851852  0.44444444  0.66666667  1.0
  Li+  Li19  1  0.85185185  0.44444444  0.66666667  1.0
  Li+  Li20  1  0.18518519  0.77777778  0.00000000  1.0
  Li+  Li20  1  0.51851852  0.77777778  0.00000000  1.0
  Li+  Li20  1  0.85185185  0.77777778  0.00000000  1.0
  Li+  Li21  1  0.18518519  0.77777778  0.33333333  1.0
  Li+  Li21  1  0.51851852  0.77777778  0.33333333  1.0
  Li+  Li21  1  0.85185185  0.77777778  0.33333333  1.0
  Li+  Li22  1  0.29629630  0.11111111  0.00000000  1.0
  Li+  Li22  1  0.62962963  0.11111111  0.00000000  1.0
  Li+  Li22  1  0.96296296  0.11111111  0.00000000  1.0
  Li+  Li23  1  0.29629630  0.11111111  0.33333333  1.0
  Li+  Li23  1  0.62962963  0.11111111  0.33333333  1.0
  Li+  Li23  1  0.96296296  0.11111111  0.33333333  1.0
  Li+  Li24  1  0.29629630  0.44444444  0.00000000  1.0
  Li+  Li24  1  0.62962963  0.44444444  0.00000000  1.0
  Li+  Li24  1  0.96296296  0.44444444  0.00000000  1.0
  Li+  Li25  1  0.29629630  0.44444444  0.66666667  1.0
  Li+  Li25  1  0.62962963  0.44444444  0.66666667  1.0
  Li+  Li25  1  0.96296296  0.44444444  0.66666667  1.0
  Li+  Li26  1  0.29629630  0.77777778  0.33333333  1.0
  Li+  Li26  1  0.62962963  0.77777778  0.33333333  1.0
  Li+  Li26  1  0.96296296  0.77777778  0.33333333  1.0
  N-  N1  1  0.00000000  0.00000000  0.00000000  1.0
  N-  N1  1  0.33333333  0.00000000  0.00000000  1.0
  N-  N1  1  0.66666667  0.00000000  0.00000000  1.0
  N-  N1  1  0.00000000  0.00000000  0.33333333  1.0
  N-  N1  1  0.33333333  0.00000000  0.33333333  1.0
  N-  N1  1  0.66666667  0.00000000  0.33333333  1.0
  N-  N1  1  0.00000000  0.00000000  0.66666667  1.0
  N-  N1  1  0.33333333  0.00000000  0.66666667  1.0
  N-  N1  1  0.66666667  0.00000000  0.66666667  1.0
  N-  N1  1  0.00000000  0.33333333  0.00000000  1.0
  N-  N1  1  0.33333333  0.33333333  0.00000000  1.0
  N-  N1  1  0.66666667  0.33333333  0.00000000  1.0
  N-  N1  1  0.00000000  0.33333333  0.33333333  1.0
  N-  N1  1  0.33333333  0.33333333  0.33333333  1.0
  N-  N1  1  0.66666667  0.33333333  0.33333333  1.0
  N-  N1  1  0.00000000  0.33333333  0.66666667  1.0
  N-  N1  1  0.33333333  0.33333333  0.66666667  1.0
  N-  N1  1  0.66666667  0.33333333  0.66666667  1.0
  N-  N1  1  0.00000000  0.66666667  0.00000000  1.0
  N-  N1  1  0.33333333  0.66666667  0.00000000  1.0
  N-  N1  1  0.66666667  0.66666667  0.00000000  1.0
  N-  N1  1  0.00000000  0.66666667  0.33333333  1.0
  N-  N1  1  0.33333333  0.66666667  0.33333333  1.0
  N-  N1  1  0.66666667  0.66666667  0.33333333  1.0
  N-  N1  1  0.00000000  0.66666667  0.66666667  1.0
  N-  N1  1  0.33333333  0.66666667  0.66666667  1.0
  N-  N1  1  0.66666667  0.66666667  0.66666667  1.0
  N-  N1  1  0.11111111  0.00000000  0.00000000  1.0
  N-  N1  1  0.44444444  0.00000000  0.00000000  1.0
  N-  N1  1  0.77777778  0.00000000  0.00000000  1.0
  N-  N1  1  0.11111111  0.00000000  0.33333333  1.0
  N-  N1  1  0.44444444  0.00000000  0.33333333  1.0
  N-  N1  1  0.77777778  0.00000000  0.33333333  1.0
  N-  N1  1  0.11111111  0.00000000  0.66666667  1.0
  N-  N1  1  0.44444444  0.00000000  0.66666667  1.0
  N-  N1  1  0.77777778  0.00000000  0.66666667  1.0
  N-  N1  1  0.11111111  0.33333333  0.00000000  1.0
  N-  N1  1  0.44444444  0.33333333  0.00000000  1.0
  N-  N1  1  0.77777778  0.33333333  0.00000000  1.0
  N-  N1  1  0.11111111  0.33333333  0.33333333  1.0
  N-  N1  1  0.44444444  0.33333333  0.33333333  1.0
  N-  N1  1  0.77777778  0.33333333  0.33333333  1.0
  N-  N1  1  0.11111111  0.33333333  0.66666667  1.0
  N-  N1  1  0.44444444  0.33333333  0.66666667  1.0
  N-  N1  1  0.77777778  0.33333333  0.66666667  1.0
  N-  N1  1  0.11111111  0.66666667  0.00000000  1.0
  N-  N1  1  0.44444444  0.66666667  0.00000000  1.0
  N-  N1  1  0.77777778  0.66666667  0.00000000  1.0
  N-  N1  1  0.11111111  0.66666667  0.33333333  1.0
  N-  N1  1  0.44444444  0.66666667  0.33333333  1.0
  N-  N1  1  0.77777778  0.66666667  0.33333333  1.0
  N-  N1  1  0.11111111  0.66666667  0.66666667  1.0
  N-  N1  1  0.44444444  0.66666667  0.66666667  1.0
  N-  N1  1  0.77777778  0.66666667  0.66666667  1.0
  N-  N1  1  0.22222222  0.00000000  0.00000000  1.0
  N-  N1  1  0.55555556  0.00000000  0.00000000  1.0
  N-  N1  1  0.88888889  0.00000000  0.00000000  1.0
  N-  N1  1  0.22222222  0.00000000  0.33333333  1.0
  N-  N1  1  0.55555556  0.00000000  0.33333333  1.0
  N-  N1  1  0.88888889  0.00000000  0.33333333  1.0
  N-  N1  1  0.22222222  0.00000000  0.66666667  1.0
  N-  N1  1  0.55555556  0.00000000  0.66666667  1.0
  N-  N1  1  0.88888889  0.00000000  0.66666667  1.0
  N-  N1  1  0.22222222  0.33333333  0.00000000  1.0
  N-  N1  1  0.55555556  0.33333333  0.00000000  1.0
  N-  N1  1  0.88888889  0.33333333  0.00000000  1.0
  N-  N1  1  0.22222222  0.33333333  0.33333333  1.0
  N-  N1  1  0.55555556  0.33333333  0.33333333  1.0
  N-  N1  1  0.88888889  0.33333333  0.33333333  1.0
  N-  N1  1  0.22222222  0.33333333  0.66666667  1.0
  N-  N1  1  0.55555556  0.33333333  0.66666667  1.0
  N-  N1  1  0.88888889  0.33333333  0.66666667  1.0
  N-  N1  1  0.22222222  0.66666667  0.00000000  1.0
  N-  N1  1  0.55555556  0.66666667  0.00000000  1.0
  N-  N1  1  0.88888889  0.66666667  0.00000000  1.0
  N-  N1  1  0.22222222  0.66666667  0.33333333  1.0
  N-  N1  1  0.55555556  0.66666667  0.33333333  1.0
  N-  N1  1  0.88888889  0.66666667  0.33333333  1.0
  N-  N1  1  0.22222222  0.66666667  0.66666667  1.0
  N-  N1  1  0.55555556  0.66666667  0.66666667  1.0
  N-  N1  1  0.88888889  0.66666667  0.66666667  1.0
