# generated using pymatgen
data_Sr3Li4Nb6O20
_symmetry_space_group_name_H-M   'P 1'
_cell_length_a   23.75100000
_cell_length_b   7.91700000
_cell_length_c   13.25638214
_cell_angle_alpha   98.58667809
_cell_angle_beta   98.58667809
_cell_angle_gamma   90.00000000
_symmetry_Int_Tables_number   1
_chemical_formula_structural   Sr3Li4Nb6O20
_chemical_formula_sum   'Sr18 Li24 Nb36 O120'
_cell_volume   2436.48511307
_cell_formula_units_Z   6
loop_
 _symmetry_equiv_pos_site_id
 _symmetry_equiv_pos_as_xyz
  1  'x, y, z'
loop_
 _atom_type_symbol
 _atom_type_oxidation_number
  Sr2+  2.0
  Li+  1.0
  Nb5+  5.0
  O2-  -2.0
loop_
 _atom_site_type_symbol
 _atom_site_label
 _atom_site_symmetry_multiplicity
 _atom_site_fract_x
 _atom_site_fract_y
 _atom_site_fract_z
 _atom_site_occupancy
  Sr2+  Sr0  1  0.07015500  0.71046500  0.84186000  1.0
  Sr2+  Sr0  1  0.40348833  0.71046500  0.84186000  1.0
  Sr2+  Sr0  1  0.73682167  0.71046500  0.84186000  1.0
  Sr2+  Sr1  1  0.23682167  0.21046500  0.84186000  1.0
  Sr2+  Sr1  1  0.57015500  0.21046500  0.84186000  1.0
  Sr2+  Sr1  1  0.90348833  0.21046500  0.84186000  1.0
  Sr2+  Sr2  1  0.23682167  0.71046500  0.84186000  1.0
  Sr2+  Sr2  1  0.57015500  0.71046500  0.84186000  1.0
  Sr2+  Sr2  1  0.90348833  0.71046500  0.84186000  1.0
  Sr2+  Sr3  1  0.09651167  0.28953500  0.15814000  1.0
  Sr2+  Sr3  1  0.42984500  0.28953500  0.15814000  1.0
  Sr2+  Sr3  1  0.76317833  0.28953500  0.15814000  1.0
  Sr2+  Sr4  1  0.26317833  0.28953500  0.15814000  1.0
  Sr2+  Sr4  1  0.59651167  0.28953500  0.15814000  1.0
  Sr2+  Sr4  1  0.92984500  0.28953500  0.15814000  1.0
  Sr2+  Sr5  1  0.26317833  0.78953500  0.15814000  1.0
  Sr2+  Sr5  1  0.59651167  0.78953500  0.15814000  1.0
  Sr2+  Sr5  1  0.92984500  0.78953500  0.15814000  1.0
  Li+  Li1  1  0.12500000  0.12500000  0.50000000  1.0
  Li+  Li1  1  0.45833333  0.12500000  0.50000000  1.0
  Li+  Li1  1  0.79166667  0.12500000  0.50000000  1.0
  Li+  Li1  1  0.12500000  0.62500000  0.50000000  1.0
  Li+  Li1  1  0.45833333  0.62500000  0.50000000  1.0
  Li+  Li1  1  0.79166667  0.62500000  0.50000000  1.0
  Li+  Li1  1  0.29166667  0.12500000  0.50000000  1.0
  Li+  Li1  1  0.62500000  0.12500000  0.50000000  1.0
  Li+  Li1  1  0.95833333  0.12500000  0.50000000  1.0
  Li+  Li1  1  0.29166667  0.62500000  0.50000000  1.0
  Li+  Li1  1  0.62500000  0.62500000  0.50000000  1.0
  Li+  Li1  1  0.95833333  0.62500000  0.50000000  1.0
  Li+  Li1  1  0.04166667  0.37500000  0.50000000  1.0
  Li+  Li1  1  0.37500000  0.37500000  0.50000000  1.0
  Li+  Li1  1  0.70833333  0.37500000  0.50000000  1.0
  Li+  Li1  1  0.04166667  0.87500000  0.50000000  1.0
  Li+  Li1  1  0.37500000  0.87500000  0.50000000  1.0
  Li+  Li1  1  0.70833333  0.87500000  0.50000000  1.0
  Li+  Li1  1  0.20833333  0.37500000  0.50000000  1.0
  Li+  Li1  1  0.54166667  0.37500000  0.50000000  1.0
  Li+  Li1  1  0.87500000  0.37500000  0.50000000  1.0
  Li+  Li1  1  0.20833333  0.87500000  0.50000000  1.0
  Li+  Li1  1  0.54166667  0.87500000  0.50000000  1.0
  Li+  Li1  1  0.87500000  0.87500000  0.50000000  1.0
  Nb5+  Nb2  1  0.14044167  0.42132500  0.68530000  1.0
  Nb5+  Nb2  1  0.47377500  0.42132500  0.68530000  1.0
  Nb5+  Nb2  1  0.80710833  0.42132500  0.68530000  1.0
  Nb5+  Nb2  1  0.14044167  0.92132500  0.68530000  1.0
  Nb5+  Nb2  1  0.47377500  0.92132500  0.68530000  1.0
  Nb5+  Nb2  1  0.80710833  0.92132500  0.68530000  1.0
  Nb5+  Nb2  1  0.30710833  0.42132500  0.68530000  1.0
  Nb5+  Nb2  1  0.64044167  0.42132500  0.68530000  1.0
  Nb5+  Nb2  1  0.97377500  0.42132500  0.68530000  1.0
  Nb5+  Nb2  1  0.30710833  0.92132500  0.68530000  1.0
  Nb5+  Nb2  1  0.64044167  0.92132500  0.68530000  1.0
  Nb5+  Nb2  1  0.97377500  0.92132500  0.68530000  1.0
  Nb5+  Nb2  1  0.02622500  0.07867500  0.31470000  1.0
  Nb5+  Nb2  1  0.35955833  0.07867500  0.31470000  1.0
  Nb5+  Nb2  1  0.69289167  0.07867500  0.31470000  1.0
  Nb5+  Nb2  1  0.02622500  0.57867500  0.31470000  1.0
  Nb5+  Nb2  1  0.35955833  0.57867500  0.31470000  1.0
  Nb5+  Nb2  1  0.69289167  0.57867500  0.31470000  1.0
  Nb5+  Nb2  1  0.19289167  0.07867500  0.31470000  1.0
  Nb5+  Nb2  1  0.52622500  0.07867500  0.31470000  1.0
  Nb5+  Nb2  1  0.85955833  0.07867500  0.31470000  1.0
  Nb5+  Nb2  1  0.19289167  0.57867500  0.31470000  1.0
  Nb5+  Nb2  1  0.52622500  0.57867500  0.31470000  1.0
  Nb5+  Nb2  1  0.85955833  0.57867500  0.31470000  1.0
  Nb5+  Nb22  1  0.00000000  0.00000000  0.00000000  1.0
  Nb5+  Nb22  1  0.33333333  0.00000000  0.00000000  1.0
  Nb5+  Nb22  1  0.66666667  0.00000000  0.00000000  1.0
  Nb5+  Nb23  1  0.00000000  0.50000000  0.00000000  1.0
  Nb5+  Nb23  1  0.33333333  0.50000000  0.00000000  1.0
  Nb5+  Nb23  1  0.66666667  0.50000000  0.00000000  1.0
  Nb5+  Nb24  1  0.16666667  0.00000000  0.00000000  1.0
  Nb5+  Nb24  1  0.50000000  0.00000000  0.00000000  1.0
  Nb5+  Nb24  1  0.83333333  0.00000000  0.00000000  1.0
  Nb5+  Nb25  1  0.16666667  0.50000000  0.00000000  1.0
  Nb5+  Nb25  1  0.50000000  0.50000000  0.00000000  1.0
  Nb5+  Nb25  1  0.83333333  0.50000000  0.00000000  1.0
  O2-  O1  1  0.12855000  0.38565000  0.54260000  1.0
  O2-  O1  1  0.46188333  0.38565000  0.54260000  1.0
  O2-  O1  1  0.79521667  0.38565000  0.54260000  1.0
  O2-  O1  1  0.12855000  0.88565000  0.54260000  1.0
  O2-  O1  1  0.46188333  0.88565000  0.54260000  1.0
  O2-  O1  1  0.79521667  0.88565000  0.54260000  1.0
  O2-  O1  1  0.29521667  0.38565000  0.54260000  1.0
  O2-  O1  1  0.62855000  0.38565000  0.54260000  1.0
  O2-  O1  1  0.96188333  0.38565000  0.54260000  1.0
  O2-  O1  1  0.29521667  0.88565000  0.54260000  1.0
  O2-  O1  1  0.62855000  0.88565000  0.54260000  1.0
  O2-  O1  1  0.96188333  0.88565000  0.54260000  1.0
  O2-  O1  1  0.03811667  0.11435000  0.45740000  1.0
  O2-  O1  1  0.37145000  0.11435000  0.45740000  1.0
  O2-  O1  1  0.70478333  0.11435000  0.45740000  1.0
  O2-  O1  1  0.03811667  0.61435000  0.45740000  1.0
  O2-  O1  1  0.37145000  0.61435000  0.45740000  1.0
  O2-  O1  1  0.70478333  0.61435000  0.45740000  1.0
  O2-  O1  1  0.20478333  0.11435000  0.45740000  1.0
  O2-  O1  1  0.53811667  0.11435000  0.45740000  1.0
  O2-  O1  1  0.87145000  0.11435000  0.45740000  1.0
  O2-  O1  1  0.20478333  0.61435000  0.45740000  1.0
  O2-  O1  1  0.53811667  0.61435000  0.45740000  1.0
  O2-  O1  1  0.87145000  0.61435000  0.45740000  1.0
  O2-  O2  1  0.05830000  0.42490000  0.69960000  1.0
  O2-  O2  1  0.39163333  0.42490000  0.69960000  1.0
  O2-  O2  1  0.72496667  0.42490000  0.69960000  1.0
  O2-  O2  1  0.05830000  0.92490000  0.69960000  1.0
  O2-  O2  1  0.39163333  0.92490000  0.69960000  1.0
  O2-  O2  1  0.72496667  0.92490000  0.69960000  1.0
  O2-  O2  1  0.22496667  0.42490000  0.69960000  1.0
  O2-  O2  1  0.55830000  0.42490000  0.69960000  1.0
  O2-  O2  1  0.89163333  0.42490000  0.69960000  1.0
  O2-  O2  1  0.22496667  0.92490000  0.69960000  1.0
  O2-  O2  1  0.55830000  0.92490000  0.69960000  1.0
  O2-  O2  1  0.89163333  0.92490000  0.69960000  1.0
  O2-  O2  1  0.14163333  0.17490000  0.69960000  1.0
  O2-  O2  1  0.47496667  0.17490000  0.69960000  1.0
  O2-  O2  1  0.80830000  0.17490000  0.69960000  1.0
  O2-  O2  1  0.14163333  0.67490000  0.69960000  1.0
  O2-  O2  1  0.47496667  0.67490000  0.69960000  1.0
  O2-  O2  1  0.80830000  0.67490000  0.69960000  1.0
  O2-  O2  1  0.30830000  0.17490000  0.69960000  1.0
  O2-  O2  1  0.64163333  0.17490000  0.69960000  1.0
  O2-  O2  1  0.97496667  0.17490000  0.69960000  1.0
  O2-  O2  1  0.30830000  0.67490000  0.69960000  1.0
  O2-  O2  1  0.64163333  0.67490000  0.69960000  1.0
  O2-  O2  1  0.97496667  0.67490000  0.69960000  1.0
  O2-  O2  1  0.10836667  0.07510000  0.30040000  1.0
  O2-  O2  1  0.44170000  0.07510000  0.30040000  1.0
  O2-  O2  1  0.77503333  0.07510000  0.30040000  1.0
  O2-  O2  1  0.10836667  0.57510000  0.30040000  1.0
  O2-  O2  1  0.44170000  0.57510000  0.30040000  1.0
  O2-  O2  1  0.77503333  0.57510000  0.30040000  1.0
  O2-  O2  1  0.27503333  0.07510000  0.30040000  1.0
  O2-  O2  1  0.60836667  0.07510000  0.30040000  1.0
  O2-  O2  1  0.94170000  0.07510000  0.30040000  1.0
  O2-  O2  1  0.27503333  0.57510000  0.30040000  1.0
  O2-  O2  1  0.60836667  0.57510000  0.30040000  1.0
  O2-  O2  1  0.94170000  0.57510000  0.30040000  1.0
  O2-  O2  1  0.02503333  0.32510000  0.30040000  1.0
  O2-  O2  1  0.35836667  0.32510000  0.30040000  1.0
  O2-  O2  1  0.69170000  0.32510000  0.30040000  1.0
  O2-  O2  1  0.02503333  0.82510000  0.30040000  1.0
  O2-  O2  1  0.35836667  0.82510000  0.30040000  1.0
  O2-  O2  1  0.69170000  0.82510000  0.30040000  1.0
  O2-  O2  1  0.19170000  0.32510000  0.30040000  1.0
  O2-  O2  1  0.52503333  0.32510000  0.30040000  1.0
  O2-  O2  1  0.85836667  0.32510000  0.30040000  1.0
  O2-  O2  1  0.19170000  0.82510000  0.30040000  1.0
  O2-  O2  1  0.52503333  0.82510000  0.30040000  1.0
  O2-  O2  1  0.85836667  0.82510000  0.30040000  1.0
  O2-  O3  1  0.15410000  0.46230000  0.84920000  1.0
  O2-  O3  1  0.48743333  0.46230000  0.84920000  1.0
  O2-  O3  1  0.82076667  0.46230000  0.84920000  1.0
  O2-  O3  1  0.15410000  0.96230000  0.84920000  1.0
  O2-  O3  1  0.48743333  0.96230000  0.84920000  1.0
  O2-  O3  1  0.82076667  0.96230000  0.84920000  1.0
  O2-  O3  1  0.32076667  0.46230000  0.84920000  1.0
  O2-  O3  1  0.65410000  0.46230000  0.84920000  1.0
  O2-  O3  1  0.98743333  0.46230000  0.84920000  1.0
  O2-  O3  1  0.32076667  0.96230000  0.84920000  1.0
  O2-  O3  1  0.65410000  0.96230000  0.84920000  1.0
  O2-  O3  1  0.98743333  0.96230000  0.84920000  1.0
  O2-  O3  1  0.01256667  0.03770000  0.15080000  1.0
  O2-  O3  1  0.34590000  0.03770000  0.15080000  1.0
  O2-  O3  1  0.67923333  0.03770000  0.15080000  1.0
  O2-  O3  1  0.01256667  0.53770000  0.15080000  1.0
  O2-  O3  1  0.34590000  0.53770000  0.15080000  1.0
  O2-  O3  1  0.67923333  0.53770000  0.15080000  1.0
  O2-  O3  1  0.17923333  0.03770000  0.15080000  1.0
  O2-  O3  1  0.51256667  0.03770000  0.15080000  1.0
  O2-  O3  1  0.84590000  0.03770000  0.15080000  1.0
  O2-  O3  1  0.17923333  0.53770000  0.15080000  1.0
  O2-  O3  1  0.51256667  0.53770000  0.15080000  1.0
  O2-  O3  1  0.84590000  0.53770000  0.15080000  1.0
  O2-  O58  1  0.08333333  0.53000000  0.00000000  1.0
  O2-  O58  1  0.41666667  0.53000000  0.00000000  1.0
  O2-  O58  1  0.75000000  0.53000000  0.00000000  1.0
  O2-  O59  1  0.25000000  0.03000000  0.00000000  1.0
  O2-  O59  1  0.58333333  0.03000000  0.00000000  1.0
  O2-  O59  1  0.91666667  0.03000000  0.00000000  1.0
  O2-  O60  1  0.25000000  0.53000000  0.00000000  1.0
  O2-  O60  1  0.58333333  0.53000000  0.00000000  1.0
  O2-  O60  1  0.91666667  0.53000000  0.00000000  1.0
  O2-  O61  1  0.08333333  0.97000000  0.00000000  1.0
  O2-  O61  1  0.41666667  0.97000000  0.00000000  1.0
  O2-  O61  1  0.75000000  0.97000000  0.00000000  1.0
  O2-  O62  1  0.01000000  0.25000000  0.00000000  1.0
  O2-  O62  1  0.34333333  0.25000000  0.00000000  1.0
  O2-  O62  1  0.67666667  0.25000000  0.00000000  1.0
  O2-  O63  1  0.01000000  0.75000000  0.00000000  1.0
  O2-  O63  1  0.34333333  0.75000000  0.00000000  1.0
  O2-  O63  1  0.67666667  0.75000000  0.00000000  1.0
  O2-  O64  1  0.17666667  0.25000000  0.00000000  1.0
  O2-  O64  1  0.51000000  0.25000000  0.00000000  1.0
  O2-  O64  1  0.84333333  0.25000000  0.00000000  1.0
  O2-  O65  1  0.17666667  0.75000000  0.00000000  1.0
  O2-  O65  1  0.51000000  0.75000000  0.00000000  1.0
  O2-  O65  1  0.84333333  0.75000000  0.00000000  1.0
