# generated using pymatgen
data_Li6PS5Br
_symmetry_space_group_name_H-M   'P 1'
_cell_length_a   7.04764844
_cell_length_b   14.09529687
_cell_length_c   35.23824218
_cell_angle_alpha   60.00000000
_cell_angle_beta   60.00000000
_cell_angle_gamma   60.00000000
_symmetry_Int_Tables_number   1
_chemical_formula_structural   Li6PS5Br
_chemical_formula_sum   'Li60 P10 S50 Br10'
_cell_volume   2475.24218107
_cell_formula_units_Z   10
loop_
 _symmetry_equiv_pos_site_id
 _symmetry_equiv_pos_as_xyz
  1  'x, y, z'
loop_
 _atom_type_symbol
 _atom_type_oxidation_number
  Li+  1.0
  P5+  5.0
  S2-  -2.0
  Br-  -1.0
loop_
 _atom_site_type_symbol
 _atom_site_label
 _atom_site_symmetry_multiplicity
 _atom_site_fract_x
 _atom_site_fract_y
 _atom_site_fract_z
 _atom_site_occupancy
  Li+  Li0  1  0.87900000  0.83350000  0.84540000  1.0
  Li+  Li1  1  0.66700000  0.43950000  0.44540000  1.0
  Li+  Li2  1  0.87900000  0.61350000  0.53340000  1.0
  Li+  Li3  1  0.87900000  0.11350000  0.04540000  1.0
  Li+  Li4  1  0.22700000  0.43950000  0.13340000  1.0
  Li+  Li5  1  0.22700000  0.43950000  0.33340000  1.0
  Li+  Li6  1  0.22700000  0.43950000  0.64540000  1.0
  Li+  Li7  1  0.66700000  0.11350000  0.17580000  1.0
  Li+  Li8  1  0.66700000  0.11350000  0.57580000  1.0
  Li+  Li9  1  0.66700000  0.61350000  0.17580000  1.0
  Li+  Li10  1  0.66700000  0.11350000  0.04540000  1.0
  Li+  Li11  1  0.22700000  0.61350000  0.77580000  1.0
  Li+  Li12  1  0.35030000  0.51095000  0.32118000  1.0
  Li+  Li13  1  0.35030000  0.51095000  0.52118000  1.0
  Li+  Li14  1  0.35030000  0.51095000  0.92118000  1.0
  Li+  Li15  1  0.02190000  0.30295000  0.67006000  1.0
  Li+  Li16  1  0.02190000  0.80295000  0.27006000  1.0
  Li+  Li17  1  0.02190000  0.80295000  0.87006000  1.0
  Li+  Li18  1  0.60590000  0.01095000  0.40438000  1.0
  Li+  Li19  1  0.60590000  0.51095000  0.00438000  1.0
  Li+  Li20  1  0.60590000  0.51095000  0.20438000  1.0
  Li+  Li21  1  0.60590000  0.01095000  0.07006000  1.0
  Li+  Li22  1  0.60590000  0.01095000  0.67006000  1.0
  Li+  Li23  1  0.60590000  0.51095000  0.67006000  1.0
  Li+  Li24  1  0.60590000  0.51095000  0.87006000  1.0
  Li+  Li25  1  0.02190000  0.01095000  0.32118000  1.0
  Li+  Li26  1  0.02190000  0.01095000  0.72118000  1.0
  Li+  Li27  1  0.02190000  0.01095000  0.92118000  1.0
  Li+  Li28  1  0.02190000  0.01095000  0.87006000  1.0
  Li+  Li29  1  0.02190000  0.51095000  0.07006000  1.0
  Li+  Li30  1  0.02190000  0.51095000  0.47006000  1.0
  Li+  Li31  1  0.02190000  0.51095000  0.87006000  1.0
  Li+  Li32  1  0.02190000  0.67515000  0.12118000  1.0
  Li+  Li33  1  0.02190000  0.67515000  0.72118000  1.0
  Li+  Li34  1  0.02190000  0.17515000  0.00438000  1.0
  Li+  Li35  1  0.02190000  0.67515000  0.20438000  1.0
  Li+  Li36  1  0.02190000  0.67515000  0.40438000  1.0
  Li+  Li37  1  0.35030000  0.01095000  0.00438000  1.0
  Li+  Li38  1  0.35030000  0.01095000  0.20438000  1.0
  Li+  Li39  1  0.35030000  0.01095000  0.40438000  1.0
  Li+  Li40  1  0.35030000  0.01095000  0.60438000  1.0
  Li+  Li41  1  0.35030000  0.01095000  0.80438000  1.0
  Li+  Li42  1  0.35030000  0.51095000  0.00438000  1.0
  Li+  Li43  1  0.35030000  0.51095000  0.60438000  1.0
  Li+  Li44  1  0.35030000  0.51095000  0.80438000  1.0
  Li+  Li45  1  0.02190000  0.30295000  0.00438000  1.0
  Li+  Li46  1  0.02190000  0.30295000  0.20438000  1.0
  Li+  Li47  1  0.02190000  0.30295000  0.40438000  1.0
  Li+  Li48  1  0.02190000  0.30295000  0.60438000  1.0
  Li+  Li49  1  0.02190000  0.80295000  0.60438000  1.0
  Li+  Li50  1  0.02190000  0.80295000  0.80438000  1.0
  Li+  Li51  1  0.60590000  0.17515000  0.20438000  1.0
  Li+  Li52  1  0.60590000  0.17515000  0.40438000  1.0
  Li+  Li53  1  0.60590000  0.17515000  0.60438000  1.0
  Li+  Li54  1  0.60590000  0.17515000  0.80438000  1.0
  Li+  Li55  1  0.60590000  0.67515000  0.40438000  1.0
  Li+  Li56  1  0.35030000  0.30295000  0.20438000  1.0
  Li+  Li57  1  0.35030000  0.30295000  0.40438000  1.0
  Li+  Li58  1  0.35030000  0.80295000  0.20438000  1.0
  Li+  Li59  1  0.35030000  0.80295000  0.40438000  1.0
  P5+  P1  1  0.50000000  0.25000000  0.10000000  1.0
  P5+  P1  1  0.50000000  0.25000000  0.30000000  1.0
  P5+  P1  1  0.50000000  0.25000000  0.50000000  1.0
  P5+  P1  1  0.50000000  0.25000000  0.70000000  1.0
  P5+  P1  1  0.50000000  0.25000000  0.90000000  1.0
  P5+  P1  1  0.50000000  0.75000000  0.10000000  1.0
  P5+  P1  1  0.50000000  0.75000000  0.30000000  1.0
  P5+  P1  1  0.50000000  0.75000000  0.50000000  1.0
  P5+  P1  1  0.50000000  0.75000000  0.70000000  1.0
  P5+  P1  1  0.50000000  0.75000000  0.90000000  1.0
  S2-  S1  1  0.61740000  0.07390000  0.12348000  1.0
  S2-  S1  1  0.61740000  0.07390000  0.32348000  1.0
  S2-  S1  1  0.61740000  0.07390000  0.52348000  1.0
  S2-  S1  1  0.61740000  0.07390000  0.72348000  1.0
  S2-  S1  1  0.61740000  0.07390000  0.92348000  1.0
  S2-  S1  1  0.61740000  0.57390000  0.12348000  1.0
  S2-  S1  1  0.61740000  0.57390000  0.32348000  1.0
  S2-  S1  1  0.61740000  0.57390000  0.52348000  1.0
  S2-  S1  1  0.61740000  0.57390000  0.72348000  1.0
  S2-  S1  1  0.61740000  0.57390000  0.92348000  1.0
  S2-  S1  1  0.61740000  0.30870000  0.12348000  1.0
  S2-  S1  1  0.61740000  0.30870000  0.32348000  1.0
  S2-  S1  1  0.61740000  0.30870000  0.52348000  1.0
  S2-  S1  1  0.61740000  0.30870000  0.72348000  1.0
  S2-  S1  1  0.61740000  0.30870000  0.92348000  1.0
  S2-  S1  1  0.61740000  0.80870000  0.12348000  1.0
  S2-  S1  1  0.61740000  0.80870000  0.32348000  1.0
  S2-  S1  1  0.61740000  0.80870000  0.52348000  1.0
  S2-  S1  1  0.61740000  0.80870000  0.72348000  1.0
  S2-  S1  1  0.61740000  0.80870000  0.92348000  1.0
  S2-  S1  1  0.61740000  0.30870000  0.02956000  1.0
  S2-  S1  1  0.61740000  0.30870000  0.22956000  1.0
  S2-  S1  1  0.61740000  0.30870000  0.42956000  1.0
  S2-  S1  1  0.61740000  0.30870000  0.62956000  1.0
  S2-  S1  1  0.61740000  0.30870000  0.82956000  1.0
  S2-  S1  1  0.61740000  0.80870000  0.02956000  1.0
  S2-  S1  1  0.61740000  0.80870000  0.22956000  1.0
  S2-  S1  1  0.61740000  0.80870000  0.42956000  1.0
  S2-  S1  1  0.61740000  0.80870000  0.62956000  1.0
  S2-  S1  1  0.61740000  0.80870000  0.82956000  1.0
  S2-  S1  1  0.14780000  0.30870000  0.12348000  1.0
  S2-  S1  1  0.14780000  0.30870000  0.32348000  1.0
  S2-  S1  1  0.14780000  0.30870000  0.52348000  1.0
  S2-  S1  1  0.14780000  0.30870000  0.72348000  1.0
  S2-  S1  1  0.14780000  0.30870000  0.92348000  1.0
  S2-  S1  1  0.14780000  0.80870000  0.12348000  1.0
  S2-  S1  1  0.14780000  0.80870000  0.32348000  1.0
  S2-  S1  1  0.14780000  0.80870000  0.52348000  1.0
  S2-  S1  1  0.14780000  0.80870000  0.72348000  1.0
  S2-  S1  1  0.14780000  0.80870000  0.92348000  1.0
  S2-  S110  1  0.00000000  0.00000000  0.20000000  1.0
  S2-  S111  1  0.00000000  0.00000000  0.80000000  1.0
  S2-  S112  1  0.00000000  0.50000000  0.00000000  1.0
  S2-  S113  1  0.00000000  0.50000000  0.20000000  1.0
  S2-  S114  1  0.75000000  0.37500000  0.35000000  1.0
  S2-  S115  1  0.75000000  0.37500000  0.55000000  1.0
  S2-  S116  1  0.75000000  0.37500000  0.95000000  1.0
  S2-  S117  1  0.75000000  0.87500000  0.55000000  1.0
  S2-  S118  1  0.75000000  0.87500000  0.75000000  1.0
  S2-  S119  1  0.75000000  0.87500000  0.95000000  1.0
  Br-  Br120  1  0.00000000  0.00000000  0.00000000  1.0
  Br-  Br121  1  0.00000000  0.00000000  0.40000000  1.0
  Br-  Br122  1  0.00000000  0.00000000  0.60000000  1.0
  Br-  Br123  1  0.00000000  0.50000000  0.40000000  1.0
  Br-  Br124  1  0.00000000  0.50000000  0.60000000  1.0
  Br-  Br125  1  0.00000000  0.50000000  0.80000000  1.0
  Br-  Br126  1  0.75000000  0.37500000  0.15000000  1.0
  Br-  Br127  1  0.75000000  0.37500000  0.75000000  1.0
  Br-  Br128  1  0.75000000  0.87500000  0.15000000  1.0
  Br-  Br129  1  0.75000000  0.87500000  0.35000000  1.0
