# generated using pymatgen
data_Li15Sb4PS20
_symmetry_space_group_name_H-M   'P 1'
_cell_length_a   7.94095000
_cell_length_b   31.67305000
_cell_length_c   13.61044000
_cell_angle_alpha   90.00000000
_cell_angle_beta   90.00000000
_cell_angle_gamma   90.00000000
_symmetry_Int_Tables_number   1
_chemical_formula_structural   Li15Sb4PS20
_chemical_formula_sum   'Li60 Sb16 P4 S80'
_cell_volume   3423.21765428
_cell_formula_units_Z   4
loop_
 _symmetry_equiv_pos_site_id
 _symmetry_equiv_pos_as_xyz
  1  'x, y, z'
loop_
 _atom_type_symbol
 _atom_type_oxidation_number
  Li+  1.0
  Sb5+  5.0
  P5+  5.0
  S2-  -2.0
loop_
 _atom_site_type_symbol
 _atom_site_label
 _atom_site_symmetry_multiplicity
 _atom_site_fract_x
 _atom_site_fract_y
 _atom_site_fract_z
 _atom_site_occupancy
  Li+  Li0  1  0.25480000  0.89966000  0.66255000  1.0
  Li+  Li1  1  0.25614227  0.89988776  0.16400700  1.0
  Li+  Li2  1  0.25480000  0.69966000  0.66255000  1.0
  Li+  Li3  1  0.25511074  0.70032770  0.15866703  1.0
  Li+  Li4  1  0.25480000  0.49966000  0.66255000  1.0
  Li+  Li5  1  0.25480000  0.49966000  0.16255000  1.0
  Li+  Li6  1  0.25480000  0.29966000  0.66255000  1.0
  Li+  Li7  1  0.25480000  0.29966000  0.16255000  1.0
  Li+  Li8  1  0.25480000  0.09966000  0.66255000  1.0
  Li+  Li9  1  0.25480000  0.09966000  0.16255000  1.0
  Li+  Li10  1  0.24520000  0.99966000  0.33745000  1.0
  Li+  Li11  1  0.24520000  0.99966000  0.83745000  1.0
  Li+  Li12  1  0.24520000  0.79966000  0.33745000  1.0
  Li+  Li13  1  0.24924734  0.80040705  0.83596330  1.0
  Li+  Li14  1  0.24520000  0.59966000  0.33745000  1.0
  Li+  Li15  1  0.24520000  0.59966000  0.83745000  1.0
  Li+  Li16  1  0.24520000  0.39966000  0.33745000  1.0
  Li+  Li17  1  0.24520000  0.39966000  0.83745000  1.0
  Li+  Li18  1  0.24520000  0.19966000  0.33745000  1.0
  Li+  Li19  1  0.24520000  0.19966000  0.83745000  1.0
  Li+  Li20  1  0.75480000  0.99966000  0.33745000  1.0
  Li+  Li21  1  0.75480000  0.99966000  0.83745000  1.0
  Li+  Li22  1  0.75480000  0.79966000  0.33745000  1.0
  Li+  Li23  1  0.75480000  0.79966000  0.83745000  1.0
  Li+  Li24  1  0.75480000  0.59966000  0.33745000  1.0
  Li+  Li25  1  0.75493677  0.60263544  0.83603106  1.0
  Li+  Li26  1  0.75480000  0.39966000  0.33745000  1.0
  Li+  Li27  1  0.75480000  0.39966000  0.83745000  1.0
  Li+  Li28  1  0.75480000  0.19966000  0.33745000  1.0
  Li+  Li29  1  0.75480000  0.19966000  0.83745000  1.0
  Li+  Li30  1  0.74520000  0.89966000  0.66255000  1.0
  Li+  Li31  1  0.74177724  0.90189130  0.16529480  1.0
  Li+  Li32  1  0.74520000  0.69966000  0.66255000  1.0
  Li+  Li33  1  0.74520000  0.69966000  0.16255000  1.0
  Li+  Li34  1  0.75022299  0.49794301  0.65853147  1.0
  Li+  Li35  1  0.74520000  0.49966000  0.16255000  1.0
  Li+  Li36  1  0.74520000  0.29966000  0.66255000  1.0
  Li+  Li37  1  0.74520000  0.29966000  0.16255000  1.0
  Li+  Li38  1  0.74520000  0.09966000  0.66255000  1.0
  Li+  Li39  1  0.74520000  0.09966000  0.16255000  1.0
  Li+  Li40  1  0.00000000  0.89652000  0.42350000  1.0
  Li+  Li41  1  0.00000000  0.89652000  0.92350000  1.0
  Li+  Li42  1  0.99966982  0.69665411  0.42476029  1.0
  Li+  Li43  1  0.00000000  0.69652000  0.92350000  1.0
  Li+  Li44  1  0.00000000  0.49652000  0.42350000  1.0
  Li+  Li45  1  0.00000000  0.49652000  0.92350000  1.0
  Li+  Li46  1  0.99759603  0.29612077  0.42625650  1.0
  Li+  Li47  1  0.00000000  0.29652000  0.92350000  1.0
  Li+  Li48  1  0.00000000  0.09652000  0.42350000  1.0
  Li+  Li49  1  0.00000000  0.09652000  0.92350000  1.0
  Li+  Li50  1  0.49952754  0.99600797  0.57866025  1.0
  Li+  Li51  1  0.50297232  0.99883219  0.07615034  1.0
  Li+  Li52  1  0.50000000  0.79652000  0.57650000  1.0
  Li+  Li53  1  0.50000000  0.79652000  0.07650000  1.0
  Li+  Li54  1  0.50000000  0.59652000  0.57650000  1.0
  Li+  Li55  1  0.50000000  0.59652000  0.07650000  1.0
  Li+  Li56  1  0.50000000  0.39652000  0.57650000  1.0
  Li+  Li57  1  0.50610377  0.38991846  0.07555126  1.0
  Li+  Li58  1  0.50000000  0.19652000  0.57650000  1.0
  Li+  Li59  1  0.50256588  0.20046778  0.07432977  1.0
  Sb5+  Sb60  1  0.00000000  0.00000000  0.58693500  1.0
  Sb5+  Sb61  1  0.00020118  0.00343268  0.09065618  1.0
  Sb5+  Sb62  1  0.00000000  0.80000000  0.58693500  1.0
  Sb5+  Sb63  1  0.00000000  0.80000000  0.08693500  1.0
  Sb5+  Sb64  1  0.00000000  0.40000000  0.58693500  1.0
  Sb5+  Sb65  1  0.00000000  0.40000000  0.08693500  1.0
  Sb5+  Sb66  1  0.00000000  0.20000000  0.58693500  1.0
  Sb5+  Sb67  1  0.00000000  0.20000000  0.08693500  1.0
  Sb5+  Sb68  1  0.50509244  0.70198733  0.41041716  1.0
  Sb5+  Sb69  1  0.49807838  0.70072381  0.91324780  1.0
  Sb5+  Sb70  1  0.50000000  0.50000000  0.41306500  1.0
  Sb5+  Sb71  1  0.50000000  0.50000000  0.91306500  1.0
  Sb5+  Sb72  1  0.50264827  0.30002537  0.41331383  1.0
  Sb5+  Sb73  1  0.50254501  0.29675306  0.91503772  1.0
  Sb5+  Sb74  1  0.50000000  0.10000000  0.41306500  1.0
  Sb5+  Sb75  1  0.49954891  0.09995391  0.91231199  1.0
  P5+  P76  1  0.00000000  0.60000000  0.58693500  1.0
  P5+  P77  1  0.00000000  0.60000000  0.08693500  1.0
  P5+  P78  1  0.50000000  0.90000000  0.41306500  1.0
  P5+  P79  1  0.50000000  0.90000000  0.91306500  1.0
  S2-  S80  1  0.23617000  0.97642000  0.66595000  1.0
  S2-  S81  1  0.23839922  0.97894802  0.16768346  1.0
  S2-  S82  1  0.23617000  0.77642000  0.66595000  1.0
  S2-  S83  1  0.23515327  0.77730406  0.16578705  1.0
  S2-  S84  1  0.23617000  0.57642000  0.66595000  1.0
  S2-  S85  1  0.23617000  0.57642000  0.16595000  1.0
  S2-  S86  1  0.23617000  0.37642000  0.66595000  1.0
  S2-  S87  1  0.23617000  0.37642000  0.16595000  1.0
  S2-  S88  1  0.23238159  0.17532529  0.66641114  1.0
  S2-  S89  1  0.23617000  0.17642000  0.16595000  1.0
  S2-  S90  1  0.26128638  0.87580956  0.33538664  1.0
  S2-  S91  1  0.26383000  0.87642000  0.83405000  1.0
  S2-  S92  1  0.26383000  0.67642000  0.33405000  1.0
  S2-  S93  1  0.26383000  0.67642000  0.83405000  1.0
  S2-  S94  1  0.26383000  0.47642000  0.33405000  1.0
  S2-  S95  1  0.26383000  0.47642000  0.83405000  1.0
  S2-  S96  1  0.26383000  0.27642000  0.33405000  1.0
  S2-  S97  1  0.26383000  0.27642000  0.83405000  1.0
  S2-  S98  1  0.26383000  0.07642000  0.33405000  1.0
  S2-  S99  1  0.26394808  0.07453433  0.83169548  1.0
  S2-  S100  1  0.73617000  0.87642000  0.33405000  1.0
  S2-  S101  1  0.73617000  0.87642000  0.83405000  1.0
  S2-  S102  1  0.73617000  0.67642000  0.33405000  1.0
  S2-  S103  1  0.73617000  0.67642000  0.83405000  1.0
  S2-  S104  1  0.73617000  0.47642000  0.33405000  1.0
  S2-  S105  1  0.73617000  0.47642000  0.83405000  1.0
  S2-  S106  1  0.73617000  0.27642000  0.33405000  1.0
  S2-  S107  1  0.74048997  0.27463348  0.83652105  1.0
  S2-  S108  1  0.73617000  0.07642000  0.33405000  1.0
  S2-  S109  1  0.73417282  0.07696099  0.83294386  1.0
  S2-  S110  1  0.76383000  0.97642000  0.66595000  1.0
  S2-  S111  1  0.76383000  0.97642000  0.16595000  1.0
  S2-  S112  1  0.76383000  0.77642000  0.66595000  1.0
  S2-  S113  1  0.76383000  0.77642000  0.16595000  1.0
  S2-  S114  1  0.76383000  0.57642000  0.66595000  1.0
  S2-  S115  1  0.76385079  0.57680408  0.16888708  1.0
  S2-  S116  1  0.76383000  0.37642000  0.66595000  1.0
  S2-  S117  1  0.76383000  0.37642000  0.16595000  1.0
  S2-  S118  1  0.76383000  0.17642000  0.66595000  1.0
  S2-  S119  1  0.76224428  0.17519901  0.16468656  1.0
  S2-  S120  1  0.00000000  0.97626000  0.42935000  1.0
  S2-  S121  1  0.99999652  0.97392992  0.92555372  1.0
  S2-  S122  1  0.00157338  0.77911188  0.43210725  1.0
  S2-  S123  1  0.00000000  0.77626000  0.92935000  1.0
  S2-  S124  1  0.00000000  0.57626000  0.42935000  1.0
  S2-  S125  1  0.99696063  0.57820122  0.92937686  1.0
  S2-  S126  1  0.00447597  0.37584546  0.42602419  1.0
  S2-  S127  1  0.00110360  0.37543395  0.92986309  1.0
  S2-  S128  1  0.00000000  0.17626000  0.42935000  1.0
  S2-  S129  1  0.99652733  0.17492699  0.93510448  1.0
  S2-  S130  1  0.50000000  0.87626000  0.57065000  1.0
  S2-  S131  1  0.50000000  0.87626000  0.07065000  1.0
  S2-  S132  1  0.50000000  0.67626000  0.57065000  1.0
  S2-  S133  1  0.50000000  0.67626000  0.07065000  1.0
  S2-  S134  1  0.50000000  0.47626000  0.57065000  1.0
  S2-  S135  1  0.50000000  0.47626000  0.07065000  1.0
  S2-  S136  1  0.50412015  0.27090386  0.57092187  1.0
  S2-  S137  1  0.50000000  0.27626000  0.07065000  1.0
  S2-  S138  1  0.50076041  0.07461975  0.56995051  1.0
  S2-  S139  1  0.50000000  0.07626000  0.07065000  1.0
  S2-  S140  1  0.00000000  0.87210000  0.59110000  1.0
  S2-  S141  1  0.00496536  0.87559285  0.08903653  1.0
  S2-  S142  1  0.00000000  0.67210000  0.59110000  1.0
  S2-  S143  1  0.99907543  0.67006078  0.09553018  1.0
  S2-  S144  1  0.00024131  0.47665959  0.59124661  1.0
  S2-  S145  1  0.00000000  0.47210000  0.09110000  1.0
  S2-  S146  1  0.00000000  0.27210000  0.59110000  1.0
  S2-  S147  1  0.00000000  0.27210000  0.09110000  1.0
  S2-  S148  1  0.99551018  0.06764847  0.59133393  1.0
  S2-  S149  1  0.00000000  0.07210000  0.09110000  1.0
  S2-  S150  1  0.50000000  0.97210000  0.40890000  1.0
  S2-  S151  1  0.50000000  0.97210000  0.90890000  1.0
  S2-  S152  1  0.50000000  0.77210000  0.40890000  1.0
  S2-  S153  1  0.50000000  0.77210000  0.90890000  1.0
  S2-  S154  1  0.50000000  0.57210000  0.40890000  1.0
  S2-  S155  1  0.50000000  0.57210000  0.90890000  1.0
  S2-  S156  1  0.50000000  0.37210000  0.40890000  1.0
  S2-  S157  1  0.50000000  0.37210000  0.90890000  1.0
  S2-  S158  1  0.49800941  0.17767946  0.40957072  1.0
  S2-  S159  1  0.50000000  0.17210000  0.90890000  1.0
