# generated using pymatgen
data_Li15Sb4PS20
_symmetry_space_group_name_H-M   'P 1'
_cell_length_a   7.94095000
_cell_length_b   13.61044000
_cell_length_c   31.67305000
_cell_angle_alpha   90.00000000
_cell_angle_beta   90.00000000
_cell_angle_gamma   90.00000000
_symmetry_Int_Tables_number   1
_chemical_formula_structural   Li15Sb4PS20
_chemical_formula_sum   'Li60 Sb16 P4 S80'
_cell_volume   3423.21765428
_cell_formula_units_Z   4
loop_
 _symmetry_equiv_pos_site_id
 _symmetry_equiv_pos_as_xyz
  1  'x, y, z'
loop_
 _atom_type_symbol
 _atom_type_oxidation_number
  Li+  1.0
  Sb5+  5.0
  P5+  5.0
  S2-  -2.0
loop_
 _atom_site_type_symbol
 _atom_site_label
 _atom_site_symmetry_multiplicity
 _atom_site_fract_x
 _atom_site_fract_y
 _atom_site_fract_z
 _atom_site_occupancy
  Li+  Li1  1  0.25480000  0.08745000  0.10034000  1.0
  Li+  Li1  1  0.25480000  0.58745000  0.10034000  1.0
  Li+  Li1  1  0.25480000  0.08745000  0.30034000  1.0
  Li+  Li1  1  0.25480000  0.58745000  0.30034000  1.0
  Li+  Li1  1  0.25480000  0.08745000  0.50034000  1.0
  Li+  Li1  1  0.25480000  0.58745000  0.50034000  1.0
  Li+  Li1  1  0.25480000  0.08745000  0.70034000  1.0
  Li+  Li1  1  0.25480000  0.58745000  0.70034000  1.0
  Li+  Li1  1  0.25480000  0.08745000  0.90034000  1.0
  Li+  Li1  1  0.25480000  0.58745000  0.90034000  1.0
  Li+  Li1  1  0.24520000  0.41255000  0.00034000  1.0
  Li+  Li1  1  0.24520000  0.91255000  0.00034000  1.0
  Li+  Li1  1  0.24520000  0.41255000  0.20034000  1.0
  Li+  Li1  1  0.24520000  0.91255000  0.20034000  1.0
  Li+  Li1  1  0.24520000  0.41255000  0.40034000  1.0
  Li+  Li1  1  0.24520000  0.91255000  0.40034000  1.0
  Li+  Li1  1  0.24520000  0.41255000  0.60034000  1.0
  Li+  Li1  1  0.24520000  0.91255000  0.60034000  1.0
  Li+  Li1  1  0.24520000  0.41255000  0.80034000  1.0
  Li+  Li1  1  0.24520000  0.91255000  0.80034000  1.0
  Li+  Li1  1  0.75480000  0.41255000  0.00034000  1.0
  Li+  Li1  1  0.75480000  0.91255000  0.00034000  1.0
  Li+  Li1  1  0.75480000  0.41255000  0.20034000  1.0
  Li+  Li1  1  0.75480000  0.91255000  0.20034000  1.0
  Li+  Li1  1  0.75480000  0.41255000  0.40034000  1.0
  Li+  Li1  1  0.75480000  0.91255000  0.40034000  1.0
  Li+  Li1  1  0.75480000  0.41255000  0.60034000  1.0
  Li+  Li1  1  0.75480000  0.91255000  0.60034000  1.0
  Li+  Li1  1  0.75480000  0.41255000  0.80034000  1.0
  Li+  Li1  1  0.75480000  0.91255000  0.80034000  1.0
  Li+  Li1  1  0.74520000  0.08745000  0.10034000  1.0
  Li+  Li1  1  0.74520000  0.58745000  0.10034000  1.0
  Li+  Li1  1  0.74520000  0.08745000  0.30034000  1.0
  Li+  Li1  1  0.74520000  0.58745000  0.30034000  1.0
  Li+  Li1  1  0.74520000  0.08745000  0.50034000  1.0
  Li+  Li1  1  0.74520000  0.58745000  0.50034000  1.0
  Li+  Li1  1  0.74520000  0.08745000  0.70034000  1.0
  Li+  Li1  1  0.74520000  0.58745000  0.70034000  1.0
  Li+  Li1  1  0.74520000  0.08745000  0.90034000  1.0
  Li+  Li1  1  0.74520000  0.58745000  0.90034000  1.0
  Li+  Li2  1  0.00000000  0.32650000  0.10348000  1.0
  Li+  Li2  1  0.00000000  0.82650000  0.10348000  1.0
  Li+  Li2  1  0.00000000  0.32650000  0.30348000  1.0
  Li+  Li2  1  0.00000000  0.82650000  0.30348000  1.0
  Li+  Li2  1  0.00000000  0.32650000  0.50348000  1.0
  Li+  Li2  1  0.00000000  0.82650000  0.50348000  1.0
  Li+  Li2  1  0.00000000  0.32650000  0.70348000  1.0
  Li+  Li2  1  0.00000000  0.82650000  0.70348000  1.0
  Li+  Li2  1  0.00000000  0.32650000  0.90348000  1.0
  Li+  Li2  1  0.00000000  0.82650000  0.90348000  1.0
  Li+  Li2  1  0.50000000  0.17350000  0.00348000  1.0
  Li+  Li2  1  0.50000000  0.67350000  0.00348000  1.0
  Li+  Li2  1  0.50000000  0.17350000  0.20348000  1.0
  Li+  Li2  1  0.50000000  0.67350000  0.20348000  1.0
  Li+  Li2  1  0.50000000  0.17350000  0.40348000  1.0
  Li+  Li2  1  0.50000000  0.67350000  0.40348000  1.0
  Li+  Li2  1  0.50000000  0.17350000  0.60348000  1.0
  Li+  Li2  1  0.50000000  0.67350000  0.60348000  1.0
  Li+  Li2  1  0.50000000  0.17350000  0.80348000  1.0
  Li+  Li2  1  0.50000000  0.67350000  0.80348000  1.0
  Sb5+  Sb30  1  0.00000000  0.16306500  0.00000000  1.0
  Sb5+  Sb30  1  0.00000000  0.66306500  0.00000000  1.0
  Sb5+  Sb31  1  0.00000000  0.16306500  0.20000000  1.0
  Sb5+  Sb31  1  0.00000000  0.66306500  0.20000000  1.0
  Sb5+  Sb32  1  0.00000000  0.16306500  0.60000000  1.0
  Sb5+  Sb32  1  0.00000000  0.66306500  0.60000000  1.0
  Sb5+  Sb33  1  0.00000000  0.16306500  0.80000000  1.0
  Sb5+  Sb33  1  0.00000000  0.66306500  0.80000000  1.0
  Sb5+  Sb34  1  0.50000000  0.33693500  0.30000000  1.0
  Sb5+  Sb34  1  0.50000000  0.83693500  0.30000000  1.0
  Sb5+  Sb35  1  0.50000000  0.33693500  0.50000000  1.0
  Sb5+  Sb35  1  0.50000000  0.83693500  0.50000000  1.0
  Sb5+  Sb36  1  0.50000000  0.33693500  0.70000000  1.0
  Sb5+  Sb36  1  0.50000000  0.83693500  0.70000000  1.0
  Sb5+  Sb37  1  0.50000000  0.33693500  0.90000000  1.0
  Sb5+  Sb37  1  0.50000000  0.83693500  0.90000000  1.0
  P5+  P38  1  0.00000000  0.16306500  0.40000000  1.0
  P5+  P38  1  0.00000000  0.66306500  0.40000000  1.0
  P5+  P39  1  0.50000000  0.33693500  0.10000000  1.0
  P5+  P39  1  0.50000000  0.83693500  0.10000000  1.0
  S2-  S1  1  0.23617000  0.08405000  0.02358000  1.0
  S2-  S1  1  0.23617000  0.58405000  0.02358000  1.0
  S2-  S1  1  0.23617000  0.08405000  0.22358000  1.0
  S2-  S1  1  0.23617000  0.58405000  0.22358000  1.0
  S2-  S1  1  0.23617000  0.08405000  0.42358000  1.0
  S2-  S1  1  0.23617000  0.58405000  0.42358000  1.0
  S2-  S1  1  0.23617000  0.08405000  0.62358000  1.0
  S2-  S1  1  0.23617000  0.58405000  0.62358000  1.0
  S2-  S1  1  0.23617000  0.08405000  0.82358000  1.0
  S2-  S1  1  0.23617000  0.58405000  0.82358000  1.0
  S2-  S1  1  0.26383000  0.41595000  0.12358000  1.0
  S2-  S1  1  0.26383000  0.91595000  0.12358000  1.0
  S2-  S1  1  0.26383000  0.41595000  0.32358000  1.0
  S2-  S1  1  0.26383000  0.91595000  0.32358000  1.0
  S2-  S1  1  0.26383000  0.41595000  0.52358000  1.0
  S2-  S1  1  0.26383000  0.91595000  0.52358000  1.0
  S2-  S1  1  0.26383000  0.41595000  0.72358000  1.0
  S2-  S1  1  0.26383000  0.91595000  0.72358000  1.0
  S2-  S1  1  0.26383000  0.41595000  0.92358000  1.0
  S2-  S1  1  0.26383000  0.91595000  0.92358000  1.0
  S2-  S1  1  0.73617000  0.41595000  0.12358000  1.0
  S2-  S1  1  0.73617000  0.91595000  0.12358000  1.0
  S2-  S1  1  0.73617000  0.41595000  0.32358000  1.0
  S2-  S1  1  0.73617000  0.91595000  0.32358000  1.0
  S2-  S1  1  0.73617000  0.41595000  0.52358000  1.0
  S2-  S1  1  0.73617000  0.91595000  0.52358000  1.0
  S2-  S1  1  0.73617000  0.41595000  0.72358000  1.0
  S2-  S1  1  0.73617000  0.91595000  0.72358000  1.0
  S2-  S1  1  0.73617000  0.41595000  0.92358000  1.0
  S2-  S1  1  0.73617000  0.91595000  0.92358000  1.0
  S2-  S1  1  0.76383000  0.08405000  0.02358000  1.0
  S2-  S1  1  0.76383000  0.58405000  0.02358000  1.0
  S2-  S1  1  0.76383000  0.08405000  0.22358000  1.0
  S2-  S1  1  0.76383000  0.58405000  0.22358000  1.0
  S2-  S1  1  0.76383000  0.08405000  0.42358000  1.0
  S2-  S1  1  0.76383000  0.58405000  0.42358000  1.0
  S2-  S1  1  0.76383000  0.08405000  0.62358000  1.0
  S2-  S1  1  0.76383000  0.58405000  0.62358000  1.0
  S2-  S1  1  0.76383000  0.08405000  0.82358000  1.0
  S2-  S1  1  0.76383000  0.58405000  0.82358000  1.0
  S2-  S2  1  0.00000000  0.32065000  0.02374000  1.0
  S2-  S2  1  0.00000000  0.82065000  0.02374000  1.0
  S2-  S2  1  0.00000000  0.32065000  0.22374000  1.0
  S2-  S2  1  0.00000000  0.82065000  0.22374000  1.0
  S2-  S2  1  0.00000000  0.32065000  0.42374000  1.0
  S2-  S2  1  0.00000000  0.82065000  0.42374000  1.0
  S2-  S2  1  0.00000000  0.32065000  0.62374000  1.0
  S2-  S2  1  0.00000000  0.82065000  0.62374000  1.0
  S2-  S2  1  0.00000000  0.32065000  0.82374000  1.0
  S2-  S2  1  0.00000000  0.82065000  0.82374000  1.0
  S2-  S2  1  0.50000000  0.17935000  0.12374000  1.0
  S2-  S2  1  0.50000000  0.67935000  0.12374000  1.0
  S2-  S2  1  0.50000000  0.17935000  0.32374000  1.0
  S2-  S2  1  0.50000000  0.67935000  0.32374000  1.0
  S2-  S2  1  0.50000000  0.17935000  0.52374000  1.0
  S2-  S2  1  0.50000000  0.67935000  0.52374000  1.0
  S2-  S2  1  0.50000000  0.17935000  0.72374000  1.0
  S2-  S2  1  0.50000000  0.67935000  0.72374000  1.0
  S2-  S2  1  0.50000000  0.17935000  0.92374000  1.0
  S2-  S2  1  0.50000000  0.67935000  0.92374000  1.0
  S2-  S3  1  0.00000000  0.15890000  0.12790000  1.0
  S2-  S3  1  0.00000000  0.65890000  0.12790000  1.0
  S2-  S3  1  0.00000000  0.15890000  0.32790000  1.0
  S2-  S3  1  0.00000000  0.65890000  0.32790000  1.0
  S2-  S3  1  0.00000000  0.15890000  0.52790000  1.0
  S2-  S3  1  0.00000000  0.65890000  0.52790000  1.0
  S2-  S3  1  0.00000000  0.15890000  0.72790000  1.0
  S2-  S3  1  0.00000000  0.65890000  0.72790000  1.0
  S2-  S3  1  0.00000000  0.15890000  0.92790000  1.0
  S2-  S3  1  0.00000000  0.65890000  0.92790000  1.0
  S2-  S3  1  0.50000000  0.34110000  0.02790000  1.0
  S2-  S3  1  0.50000000  0.84110000  0.02790000  1.0
  S2-  S3  1  0.50000000  0.34110000  0.22790000  1.0
  S2-  S3  1  0.50000000  0.84110000  0.22790000  1.0
  S2-  S3  1  0.50000000  0.34110000  0.42790000  1.0
  S2-  S3  1  0.50000000  0.84110000  0.42790000  1.0
  S2-  S3  1  0.50000000  0.34110000  0.62790000  1.0
  S2-  S3  1  0.50000000  0.84110000  0.62790000  1.0
  S2-  S3  1  0.50000000  0.34110000  0.82790000  1.0
  S2-  S3  1  0.50000000  0.84110000  0.82790000  1.0
