# generated using pymatgen
data_LiBiO2
_symmetry_space_group_name_H-M   'P 1'
_cell_length_a   9.99800000
_cell_length_b   29.14754928
_cell_length_c   10.41600000
_cell_angle_alpha   105.54622182
_cell_angle_beta   90.00000000
_cell_angle_gamma   75.09245486
_symmetry_Int_Tables_number   1
_chemical_formula_structural   LiBiO2
_chemical_formula_sum   'Li48 Bi48 O96'
_cell_volume   2818.16209569
_cell_formula_units_Z   48
loop_
 _symmetry_equiv_pos_site_id
 _symmetry_equiv_pos_as_xyz
  1  'x, y, z'
loop_
 _atom_type_symbol
 _atom_type_oxidation_number
  Li+  1.0
  Bi3+  3.0
  O2-  -2.0
loop_
 _atom_site_type_symbol
 _atom_site_label
 _atom_site_symmetry_multiplicity
 _atom_site_fract_x
 _atom_site_fract_y
 _atom_site_fract_z
 _atom_site_occupancy
  Li+  Li0  1  0.23000000  0.86000000  0.64500000  1.0
  Li+  Li1  1  0.23000000  0.52666667  0.64500000  1.0
  Li+  Li2  1  0.23000000  0.19333333  0.64500000  1.0
  Li+  Li3  1  0.23000000  0.86000000  0.14500000  1.0
  Li+  Li4  1  0.23000000  0.52666667  0.14500000  1.0
  Li+  Li5  1  0.23000000  0.19333333  0.14500000  1.0
  Li+  Li6  1  0.73000000  0.86000000  0.64500000  1.0
  Li+  Li7  1  0.73000000  0.52666667  0.64500000  1.0
  Li+  Li8  1  0.73000000  0.19333333  0.64500000  1.0
  Li+  Li9  1  0.73000000  0.86000000  0.14500000  1.0
  Li+  Li10  1  0.73162468  0.53206605  0.14039610  1.0
  Li+  Li11  1  0.72715090  0.19749826  0.14876142  1.0
  Li+  Li12  1  0.02000000  0.80666667  0.35500000  1.0
  Li+  Li13  1  0.01609747  0.46969297  0.35335406  1.0
  Li+  Li14  1  0.02000000  0.14000000  0.35500000  1.0
  Li+  Li15  1  0.02000000  0.80666667  0.85500000  1.0
  Li+  Li16  1  0.02000000  0.47333333  0.85500000  1.0
  Li+  Li17  1  0.02000000  0.14000000  0.85500000  1.0
  Li+  Li18  1  0.52000000  0.80666667  0.35500000  1.0
  Li+  Li19  1  0.52012937  0.47681555  0.35333244  1.0
  Li+  Li20  1  0.52333696  0.14223886  0.35761913  1.0
  Li+  Li21  1  0.52000000  0.80666667  0.85500000  1.0
  Li+  Li22  1  0.52000000  0.47333333  0.85500000  1.0
  Li+  Li23  1  0.52000000  0.14000000  0.85500000  1.0
  Li+  Li24  1  0.27000000  0.80666667  0.35500000  1.0
  Li+  Li25  1  0.27000000  0.47333333  0.35500000  1.0
  Li+  Li26  1  0.27000000  0.14000000  0.35500000  1.0
  Li+  Li27  1  0.27000000  0.80666667  0.85500000  1.0
  Li+  Li28  1  0.26796221  0.46826019  0.85588013  1.0
  Li+  Li29  1  0.27000000  0.14000000  0.85500000  1.0
  Li+  Li30  1  0.77000000  0.80666667  0.35500000  1.0
  Li+  Li31  1  0.77000000  0.47333333  0.35500000  1.0
  Li+  Li32  1  0.77000000  0.14000000  0.35500000  1.0
  Li+  Li33  1  0.77000000  0.80666667  0.85500000  1.0
  Li+  Li34  1  0.77000000  0.47333333  0.85500000  1.0
  Li+  Li35  1  0.77568647  0.13608366  0.85803331  1.0
  Li+  Li36  1  0.48219513  0.86090556  0.64521160  1.0
  Li+  Li37  1  0.48000000  0.52666667  0.64500000  1.0
  Li+  Li38  1  0.48000000  0.19333333  0.64500000  1.0
  Li+  Li39  1  0.48000000  0.86000000  0.14500000  1.0
  Li+  Li40  1  0.48000000  0.52666667  0.14500000  1.0
  Li+  Li41  1  0.48000000  0.19333333  0.14500000  1.0
  Li+  Li42  1  0.98000000  0.86000000  0.64500000  1.0
  Li+  Li43  1  0.98000000  0.52666667  0.64500000  1.0
  Li+  Li44  1  0.98000000  0.19333333  0.64500000  1.0
  Li+  Li45  1  0.98000000  0.86000000  0.14500000  1.0
  Li+  Li46  1  0.98000000  0.52666667  0.14500000  1.0
  Li+  Li47  1  0.98000000  0.19333333  0.14500000  1.0
  Bi3+  Bi48  1  0.30300000  0.92933333  0.31500000  1.0
  Bi3+  Bi49  1  0.30300000  0.59600000  0.31500000  1.0
  Bi3+  Bi50  1  0.30300000  0.26266667  0.31500000  1.0
  Bi3+  Bi51  1  0.30300000  0.92933333  0.81500000  1.0
  Bi3+  Bi52  1  0.30300000  0.59600000  0.81500000  1.0
  Bi3+  Bi53  1  0.30300000  0.26266667  0.81500000  1.0
  Bi3+  Bi54  1  0.80300000  0.92933333  0.31500000  1.0
  Bi3+  Bi55  1  0.80158022  0.59346849  0.31802223  1.0
  Bi3+  Bi56  1  0.80300000  0.26266667  0.31500000  1.0
  Bi3+  Bi57  1  0.80300000  0.92933333  0.81500000  1.0
  Bi3+  Bi58  1  0.80335818  0.59971314  0.81554680  1.0
  Bi3+  Bi59  1  0.80584947  0.26355057  0.81699192  1.0
  Bi3+  Bi60  1  0.20008691  0.73420866  0.68298887  1.0
  Bi3+  Bi61  1  0.19700000  0.40400000  0.68500000  1.0
  Bi3+  Bi62  1  0.19786623  0.07127330  0.68929407  1.0
  Bi3+  Bi63  1  0.19727856  0.74117181  0.18198733  1.0
  Bi3+  Bi64  1  0.19700000  0.40400000  0.18500000  1.0
  Bi3+  Bi65  1  0.19700000  0.07066667  0.18500000  1.0
  Bi3+  Bi66  1  0.69700000  0.73733333  0.68500000  1.0
  Bi3+  Bi67  1  0.69700000  0.40400000  0.68500000  1.0
  Bi3+  Bi68  1  0.69700000  0.07066667  0.68500000  1.0
  Bi3+  Bi69  1  0.69723363  0.73536361  0.18212217  1.0
  Bi3+  Bi70  1  0.69784863  0.40498592  0.18963141  1.0
  Bi3+  Bi71  1  0.69700000  0.07066667  0.18500000  1.0
  Bi3+  Bi72  1  0.44589712  0.73572233  0.42016744  1.0
  Bi3+  Bi73  1  0.44971007  0.39988334  0.41904326  1.0
  Bi3+  Bi74  1  0.44700000  0.07066667  0.42100000  1.0
  Bi3+  Bi75  1  0.44951029  0.74030050  0.92239862  1.0
  Bi3+  Bi76  1  0.44309906  0.40514975  0.92008569  1.0
  Bi3+  Bi77  1  0.44896509  0.07027185  0.91731162  1.0
  Bi3+  Bi78  1  0.94700000  0.73733333  0.42100000  1.0
  Bi3+  Bi79  1  0.94700000  0.40400000  0.42100000  1.0
  Bi3+  Bi80  1  0.94335422  0.07257408  0.42040669  1.0
  Bi3+  Bi81  1  0.94700000  0.73733333  0.92100000  1.0
  Bi3+  Bi82  1  0.94501386  0.40405038  0.92100950  1.0
  Bi3+  Bi83  1  0.94700000  0.07066667  0.92100000  1.0
  Bi3+  Bi84  1  0.05300000  0.92933333  0.57900000  1.0
  Bi3+  Bi85  1  0.05087005  0.59629039  0.57576680  1.0
  Bi3+  Bi86  1  0.05300000  0.26266667  0.57900000  1.0
  Bi3+  Bi87  1  0.05300000  0.92933333  0.07900000  1.0
  Bi3+  Bi88  1  0.04820090  0.59128074  0.07955631  1.0
  Bi3+  Bi89  1  0.05300000  0.26266667  0.07900000  1.0
  Bi3+  Bi90  1  0.55300000  0.92933333  0.57900000  1.0
  Bi3+  Bi91  1  0.55300000  0.59600000  0.57900000  1.0
  Bi3+  Bi92  1  0.54884810  0.26471114  0.57601013  1.0
  Bi3+  Bi93  1  0.55300000  0.92933333  0.07900000  1.0
  Bi3+  Bi94  1  0.55298882  0.59899211  0.08030410  1.0
  Bi3+  Bi95  1  0.55300000  0.26266667  0.07900000  1.0
  O2-  O96  1  0.35300000  0.86266667  0.25250000  1.0
  O2-  O97  1  0.35300000  0.52933333  0.25250000  1.0
  O2-  O98  1  0.35694806  0.19540458  0.25535923  1.0
  O2-  O99  1  0.35300000  0.86266667  0.75250000  1.0
  O2-  O100  1  0.35300000  0.52933333  0.75250000  1.0
  O2-  O101  1  0.35300000  0.19600000  0.75250000  1.0
  O2-  O102  1  0.85300000  0.86266667  0.25250000  1.0
  O2-  O103  1  0.85300000  0.52933333  0.25250000  1.0
  O2-  O104  1  0.85300000  0.19600000  0.25250000  1.0
  O2-  O105  1  0.85762725  0.86362684  0.75749846  1.0
  O2-  O106  1  0.85218312  0.53100470  0.74972526  1.0
  O2-  O107  1  0.85300000  0.19600000  0.75250000  1.0
  O2-  O108  1  0.14978798  0.80531911  0.75007646  1.0
  O2-  O109  1  0.14577360  0.46895980  0.74498560  1.0
  O2-  O110  1  0.14700000  0.13733333  0.74750000  1.0
  O2-  O111  1  0.14700000  0.80400000  0.24750000  1.0
  O2-  O112  1  0.14700000  0.47066667  0.24750000  1.0
  O2-  O113  1  0.14700000  0.13733333  0.24750000  1.0
  O2-  O114  1  0.64700000  0.80400000  0.74750000  1.0
  O2-  O115  1  0.64700000  0.47066667  0.74750000  1.0
  O2-  O116  1  0.65088595  0.13388657  0.74617931  1.0
  O2-  O117  1  0.64700000  0.80400000  0.24750000  1.0
  O2-  O118  1  0.64700000  0.47066667  0.24750000  1.0
  O2-  O119  1  0.64700000  0.13733333  0.24750000  1.0
  O2-  O120  1  0.39700000  0.80400000  0.45850000  1.0
  O2-  O121  1  0.39700000  0.47066667  0.45850000  1.0
  O2-  O122  1  0.39700000  0.13733333  0.45850000  1.0
  O2-  O123  1  0.39700000  0.80400000  0.95850000  1.0
  O2-  O124  1  0.39700000  0.47066667  0.95850000  1.0
  O2-  O125  1  0.39823698  0.13979001  0.95871176  1.0
  O2-  O126  1  0.89700000  0.80400000  0.45850000  1.0
  O2-  O127  1  0.89700000  0.47066667  0.45850000  1.0
  O2-  O128  1  0.89700000  0.13733333  0.45850000  1.0
  O2-  O129  1  0.89906718  0.80482959  0.96318323  1.0
  O2-  O130  1  0.89700000  0.47066667  0.95850000  1.0
  O2-  O131  1  0.89931481  0.13627122  0.95971543  1.0
  O2-  O132  1  0.09926470  0.86102132  0.54363095  1.0
  O2-  O133  1  0.10300000  0.52933333  0.54150000  1.0
  O2-  O134  1  0.10300000  0.19600000  0.54150000  1.0
  O2-  O135  1  0.10300000  0.86266667  0.04150000  1.0
  O2-  O136  1  0.10037551  0.52808310  0.04532866  1.0
  O2-  O137  1  0.10063831  0.20160519  0.04342634  1.0
  O2-  O138  1  0.60300000  0.86266667  0.54150000  1.0
  O2-  O139  1  0.60300000  0.52933333  0.54150000  1.0
  O2-  O140  1  0.60050297  0.19685467  0.54191972  1.0
  O2-  O141  1  0.60300000  0.86266667  0.04150000  1.0
  O2-  O142  1  0.60300000  0.52933333  0.04150000  1.0
  O2-  O143  1  0.60300000  0.19600000  0.04150000  1.0
  O2-  O144  1  0.28550000  0.95266667  0.60050000  1.0
  O2-  O145  1  0.28550000  0.61933333  0.60050000  1.0
  O2-  O146  1  0.28722193  0.28685461  0.60282683  1.0
  O2-  O147  1  0.28550000  0.95266667  0.10050000  1.0
  O2-  O148  1  0.28550000  0.61933333  0.10050000  1.0
  O2-  O149  1  0.28467760  0.28812641  0.10100517  1.0
  O2-  O150  1  0.78550000  0.95266667  0.60050000  1.0
  O2-  O151  1  0.78550000  0.61933333  0.60050000  1.0
  O2-  O152  1  0.78550000  0.28600000  0.60050000  1.0
  O2-  O153  1  0.78692921  0.95526904  0.09962674  1.0
  O2-  O154  1  0.78550000  0.61933333  0.10050000  1.0
  O2-  O155  1  0.78550000  0.28600000  0.10050000  1.0
  O2-  O156  1  0.21450000  0.71400000  0.39950000  1.0
  O2-  O157  1  0.21450000  0.38066667  0.39950000  1.0
  O2-  O158  1  0.21450000  0.04733333  0.39950000  1.0
  O2-  O159  1  0.21450000  0.71400000  0.89950000  1.0
  O2-  O160  1  0.21450000  0.38066667  0.89950000  1.0
  O2-  O161  1  0.21450000  0.04733333  0.89950000  1.0
  O2-  O162  1  0.71450000  0.71400000  0.39950000  1.0
  O2-  O163  1  0.71450000  0.38066667  0.39950000  1.0
  O2-  O164  1  0.71450000  0.04733333  0.39950000  1.0
  O2-  O165  1  0.71450000  0.71400000  0.89950000  1.0
  O2-  O166  1  0.71450000  0.38066667  0.89950000  1.0
  O2-  O167  1  0.71450000  0.04733333  0.89950000  1.0
  O2-  O168  1  0.46655209  0.71723077  0.67121052  1.0
  O2-  O169  1  0.46450000  0.38066667  0.67150000  1.0
  O2-  O170  1  0.46450000  0.04733333  0.67150000  1.0
  O2-  O171  1  0.46450000  0.71400000  0.17150000  1.0
  O2-  O172  1  0.46450000  0.38066667  0.17150000  1.0
  O2-  O173  1  0.46450000  0.04733333  0.17150000  1.0
  O2-  O174  1  0.96450000  0.71400000  0.67150000  1.0
  O2-  O175  1  0.96450000  0.38066667  0.67150000  1.0
  O2-  O176  1  0.96367171  0.04521420  0.67008730  1.0
  O2-  O177  1  0.96198581  0.71543039  0.17259278  1.0
  O2-  O178  1  0.96450000  0.38066667  0.17150000  1.0
  O2-  O179  1  0.96311241  0.04560597  0.16726400  1.0
  O2-  O180  1  0.03550000  0.95266667  0.32850000  1.0
  O2-  O181  1  0.03550000  0.61933333  0.32850000  1.0
  O2-  O182  1  0.03550000  0.28600000  0.32850000  1.0
  O2-  O183  1  0.03550000  0.95266667  0.82850000  1.0
  O2-  O184  1  0.03550000  0.61933333  0.82850000  1.0
  O2-  O185  1  0.03550000  0.28600000  0.82850000  1.0
  O2-  O186  1  0.53550000  0.95266667  0.32850000  1.0
  O2-  O187  1  0.53550000  0.61933333  0.32850000  1.0
  O2-  O188  1  0.53550000  0.28600000  0.32850000  1.0
  O2-  O189  1  0.53550000  0.95266667  0.82850000  1.0
  O2-  O190  1  0.53550000  0.61933333  0.82850000  1.0
  O2-  O191  1  0.53511381  0.28824986  0.82614971  1.0
