# generated using pymatgen
data_LiBiO2
_symmetry_space_group_name_H-M   'P 1'
_cell_length_a   10.41446719
_cell_length_b   9.99652870
_cell_length_c   29.14325995
_cell_angle_alpha   75.09245486
_cell_angle_beta   74.45377818
_cell_angle_gamma   90.00000000
_symmetry_Int_Tables_number   1
_chemical_formula_structural   LiBiO2
_chemical_formula_sum   'Li48 Bi48 O96'
_cell_volume   2816.91812275
_cell_formula_units_Z   48
loop_
 _symmetry_equiv_pos_site_id
 _symmetry_equiv_pos_as_xyz
  1  'x, y, z'
loop_
 _atom_type_symbol
 _atom_type_oxidation_number
  Li+  1.0
  Bi3+  3.0
  O2-  -2.0
loop_
 _atom_site_type_symbol
 _atom_site_label
 _atom_site_symmetry_multiplicity
 _atom_site_fract_x
 _atom_site_fract_y
 _atom_site_fract_z
 _atom_site_occupancy
  Li+  Li0  1  0.89500000  0.43666667  0.14000000  1.0
  Li+  Li1  1  0.89500000  0.43666667  0.47333333  1.0
  Li+  Li2  1  0.89500000  0.43666667  0.80666667  1.0
  Li+  Li3  1  0.39500000  0.43666667  0.14000000  1.0
  Li+  Li4  1  0.39500000  0.43666667  0.47333333  1.0
  Li+  Li5  1  0.39500000  0.43666667  0.80666667  1.0
  Li+  Li6  1  0.89500000  0.93666667  0.14000000  1.0
  Li+  Li7  1  0.89500000  0.93666667  0.47333333  1.0
  Li+  Li8  1  0.89500000  0.93666667  0.80666667  1.0
  Li+  Li9  1  0.39500000  0.93666667  0.14000000  1.0
  Li+  Li10  1  0.39500000  0.93666667  0.47333333  1.0
  Li+  Li11  1  0.39500000  0.93666667  0.80666667  1.0
  Li+  Li12  1  0.60500000  0.64666667  0.19333333  1.0
  Li+  Li13  1  0.60500000  0.64666667  0.52666667  1.0
  Li+  Li14  1  0.60500000  0.64666667  0.86000000  1.0
  Li+  Li15  1  0.10500000  0.64666667  0.19333333  1.0
  Li+  Li16  1  0.10500000  0.64666667  0.52666667  1.0
  Li+  Li17  1  0.10500000  0.64666667  0.86000000  1.0
  Li+  Li18  1  0.60500000  0.14666667  0.19333333  1.0
  Li+  Li19  1  0.60500000  0.14666667  0.52666667  1.0
  Li+  Li20  1  0.60500000  0.14666667  0.86000000  1.0
  Li+  Li21  1  0.10500000  0.14666667  0.19333333  1.0
  Li+  Li22  1  0.10500000  0.14666667  0.52666667  1.0
  Li+  Li23  1  0.10500000  0.14666667  0.86000000  1.0
  Li+  Li24  1  0.60500000  0.39666667  0.19333333  1.0
  Li+  Li25  1  0.60500000  0.39666667  0.52666667  1.0
  Li+  Li26  1  0.60500000  0.39666667  0.86000000  1.0
  Li+  Li27  1  0.10500000  0.39666667  0.19333333  1.0
  Li+  Li28  1  0.10500000  0.39666667  0.52666667  1.0
  Li+  Li29  1  0.10500000  0.39666667  0.86000000  1.0
  Li+  Li30  1  0.60500000  0.89666667  0.19333333  1.0
  Li+  Li31  1  0.60500000  0.89666667  0.52666667  1.0
  Li+  Li32  1  0.60500000  0.89666667  0.86000000  1.0
  Li+  Li33  1  0.10500000  0.89666667  0.19333333  1.0
  Li+  Li34  1  0.10500000  0.89666667  0.52666667  1.0
  Li+  Li35  1  0.10500000  0.89666667  0.86000000  1.0
  Li+  Li36  1  0.89500000  0.18666667  0.14000000  1.0
  Li+  Li37  1  0.89500000  0.18666667  0.47333333  1.0
  Li+  Li38  1  0.89500000  0.18666667  0.80666667  1.0
  Li+  Li39  1  0.39500000  0.18666667  0.14000000  1.0
  Li+  Li40  1  0.39500000  0.18666667  0.47333333  1.0
  Li+  Li41  1  0.39500000  0.18666667  0.80666667  1.0
  Li+  Li42  1  0.89500000  0.68666667  0.14000000  1.0
  Li+  Li43  1  0.89500000  0.68666667  0.47333333  1.0
  Li+  Li44  1  0.89500000  0.68666667  0.80666667  1.0
  Li+  Li45  1  0.39500000  0.68666667  0.14000000  1.0
  Li+  Li46  1  0.39500000  0.68666667  0.47333333  1.0
  Li+  Li47  1  0.39500000  0.68666667  0.80666667  1.0
  Bi3+  Bi48  1  0.56500000  0.36366667  0.07066667  1.0
  Bi3+  Bi49  1  0.56500000  0.36366667  0.40400000  1.0
  Bi3+  Bi50  1  0.56500000  0.36366667  0.73733333  1.0
  Bi3+  Bi51  1  0.06500000  0.36366667  0.07066667  1.0
  Bi3+  Bi52  1  0.06500000  0.36366667  0.40400000  1.0
  Bi3+  Bi53  1  0.06500000  0.36366667  0.73733333  1.0
  Bi3+  Bi54  1  0.56500000  0.86366667  0.07066667  1.0
  Bi3+  Bi55  1  0.56500000  0.86366667  0.40400000  1.0
  Bi3+  Bi56  1  0.56500000  0.86366667  0.73733333  1.0
  Bi3+  Bi57  1  0.06500000  0.86366667  0.07066667  1.0
  Bi3+  Bi58  1  0.06500000  0.86366667  0.40400000  1.0
  Bi3+  Bi59  1  0.06500000  0.86366667  0.73733333  1.0
  Bi3+  Bi60  1  0.93500000  0.46966667  0.26266667  1.0
  Bi3+  Bi61  1  0.93500000  0.46966667  0.59600000  1.0
  Bi3+  Bi62  1  0.93500000  0.46966667  0.92933333  1.0
  Bi3+  Bi63  1  0.43500000  0.46966667  0.26266667  1.0
  Bi3+  Bi64  1  0.43500000  0.46966667  0.59600000  1.0
  Bi3+  Bi65  1  0.43500000  0.46966667  0.92933333  1.0
  Bi3+  Bi66  1  0.93500000  0.96966667  0.26266667  1.0
  Bi3+  Bi67  1  0.93500000  0.96966667  0.59600000  1.0
  Bi3+  Bi68  1  0.93500000  0.96966667  0.92933333  1.0
  Bi3+  Bi69  1  0.43500000  0.96966667  0.26266667  1.0
  Bi3+  Bi70  1  0.43500000  0.96966667  0.59600000  1.0
  Bi3+  Bi71  1  0.43500000  0.96966667  0.92933333  1.0
  Bi3+  Bi72  1  0.67100000  0.21966667  0.26266667  1.0
  Bi3+  Bi73  1  0.67100000  0.21966667  0.59600000  1.0
  Bi3+  Bi74  1  0.67100000  0.21966667  0.92933333  1.0
  Bi3+  Bi75  1  0.17100000  0.21966667  0.26266667  1.0
  Bi3+  Bi76  1  0.17100000  0.21966667  0.59600000  1.0
  Bi3+  Bi77  1  0.17100000  0.21966667  0.92933333  1.0
  Bi3+  Bi78  1  0.67100000  0.71966667  0.26266667  1.0
  Bi3+  Bi79  1  0.67100000  0.71966667  0.59600000  1.0
  Bi3+  Bi80  1  0.67100000  0.71966667  0.92933333  1.0
  Bi3+  Bi81  1  0.17100000  0.71966667  0.26266667  1.0
  Bi3+  Bi82  1  0.17100000  0.71966667  0.59600000  1.0
  Bi3+  Bi83  1  0.17100000  0.71966667  0.92933333  1.0
  Bi3+  Bi84  1  0.82900000  0.61366667  0.07066667  1.0
  Bi3+  Bi85  1  0.82900000  0.61366667  0.40400000  1.0
  Bi3+  Bi86  1  0.82900000  0.61366667  0.73733333  1.0
  Bi3+  Bi87  1  0.32900000  0.61366667  0.07066667  1.0
  Bi3+  Bi88  1  0.32900000  0.61366667  0.40400000  1.0
  Bi3+  Bi89  1  0.32900000  0.61366667  0.73733333  1.0
  Bi3+  Bi90  1  0.82900000  0.11366667  0.07066667  1.0
  Bi3+  Bi91  1  0.82900000  0.11366667  0.40400000  1.0
  Bi3+  Bi92  1  0.82900000  0.11366667  0.73733333  1.0
  Bi3+  Bi93  1  0.32900000  0.11366667  0.07066667  1.0
  Bi3+  Bi94  1  0.32900000  0.11366667  0.40400000  1.0
  Bi3+  Bi95  1  0.32900000  0.11366667  0.73733333  1.0
  O2-  O96  1  0.50250000  0.31366667  0.13733333  1.0
  O2-  O97  1  0.50250000  0.31366667  0.47066667  1.0
  O2-  O98  1  0.50250000  0.31366667  0.80400000  1.0
  O2-  O99  1  0.00250000  0.31366667  0.13733333  1.0
  O2-  O100  1  0.00250000  0.31366667  0.47066667  1.0
  O2-  O101  1  0.00250000  0.31366667  0.80400000  1.0
  O2-  O102  1  0.50250000  0.81366667  0.13733333  1.0
  O2-  O103  1  0.50250000  0.81366667  0.47066667  1.0
  O2-  O104  1  0.50250000  0.81366667  0.80400000  1.0
  O2-  O105  1  0.00250000  0.81366667  0.13733333  1.0
  O2-  O106  1  0.00250000  0.81366667  0.47066667  1.0
  O2-  O107  1  0.00250000  0.81366667  0.80400000  1.0
  O2-  O108  1  0.99750000  0.51966667  0.19600000  1.0
  O2-  O109  1  0.99750000  0.51966667  0.52933333  1.0
  O2-  O110  1  0.99750000  0.51966667  0.86266667  1.0
  O2-  O111  1  0.49750000  0.51966667  0.19600000  1.0
  O2-  O112  1  0.49750000  0.51966667  0.52933333  1.0
  O2-  O113  1  0.49750000  0.51966667  0.86266667  1.0
  O2-  O114  1  0.99750000  0.01966667  0.19600000  1.0
  O2-  O115  1  0.99750000  0.01966667  0.52933333  1.0
  O2-  O116  1  0.99750000  0.01966667  0.86266667  1.0
  O2-  O117  1  0.49750000  0.01966667  0.19600000  1.0
  O2-  O118  1  0.49750000  0.01966667  0.52933333  1.0
  O2-  O119  1  0.49750000  0.01966667  0.86266667  1.0
  O2-  O120  1  0.70850000  0.26966667  0.19600000  1.0
  O2-  O121  1  0.70850000  0.26966667  0.52933333  1.0
  O2-  O122  1  0.70850000  0.26966667  0.86266667  1.0
  O2-  O123  1  0.20850000  0.26966667  0.19600000  1.0
  O2-  O124  1  0.20850000  0.26966667  0.52933333  1.0
  O2-  O125  1  0.20850000  0.26966667  0.86266667  1.0
  O2-  O126  1  0.70850000  0.76966667  0.19600000  1.0
  O2-  O127  1  0.70850000  0.76966667  0.52933333  1.0
  O2-  O128  1  0.70850000  0.76966667  0.86266667  1.0
  O2-  O129  1  0.20850000  0.76966667  0.19600000  1.0
  O2-  O130  1  0.20850000  0.76966667  0.52933333  1.0
  O2-  O131  1  0.20850000  0.76966667  0.86266667  1.0
  O2-  O132  1  0.79150000  0.56366667  0.13733333  1.0
  O2-  O133  1  0.79150000  0.56366667  0.47066667  1.0
  O2-  O134  1  0.79150000  0.56366667  0.80400000  1.0
  O2-  O135  1  0.29150000  0.56366667  0.13733333  1.0
  O2-  O136  1  0.29150000  0.56366667  0.47066667  1.0
  O2-  O137  1  0.29150000  0.56366667  0.80400000  1.0
  O2-  O138  1  0.79150000  0.06366667  0.13733333  1.0
  O2-  O139  1  0.79150000  0.06366667  0.47066667  1.0
  O2-  O140  1  0.79150000  0.06366667  0.80400000  1.0
  O2-  O141  1  0.29150000  0.06366667  0.13733333  1.0
  O2-  O142  1  0.29150000  0.06366667  0.47066667  1.0
  O2-  O143  1  0.29150000  0.06366667  0.80400000  1.0
  O2-  O144  1  0.85050000  0.38116667  0.04733333  1.0
  O2-  O145  1  0.85050000  0.38116667  0.38066667  1.0
  O2-  O146  1  0.85050000  0.38116667  0.71400000  1.0
  O2-  O147  1  0.35050000  0.38116667  0.04733333  1.0
  O2-  O148  1  0.35050000  0.38116667  0.38066667  1.0
  O2-  O149  1  0.35050000  0.38116667  0.71400000  1.0
  O2-  O150  1  0.85050000  0.88116667  0.04733333  1.0
  O2-  O151  1  0.85050000  0.88116667  0.38066667  1.0
  O2-  O152  1  0.85050000  0.88116667  0.71400000  1.0
  O2-  O153  1  0.35050000  0.88116667  0.04733333  1.0
  O2-  O154  1  0.35050000  0.88116667  0.38066667  1.0
  O2-  O155  1  0.35050000  0.88116667  0.71400000  1.0
  O2-  O156  1  0.64950000  0.45216667  0.28600000  1.0
  O2-  O157  1  0.64950000  0.45216667  0.61933333  1.0
  O2-  O158  1  0.64950000  0.45216667  0.95266667  1.0
  O2-  O159  1  0.14950000  0.45216667  0.28600000  1.0
  O2-  O160  1  0.14950000  0.45216667  0.61933333  1.0
  O2-  O161  1  0.14950000  0.45216667  0.95266667  1.0
  O2-  O162  1  0.64950000  0.95216667  0.28600000  1.0
  O2-  O163  1  0.64950000  0.95216667  0.61933333  1.0
  O2-  O164  1  0.64950000  0.95216667  0.95266667  1.0
  O2-  O165  1  0.14950000  0.95216667  0.28600000  1.0
  O2-  O166  1  0.14950000  0.95216667  0.61933333  1.0
  O2-  O167  1  0.14950000  0.95216667  0.95266667  1.0
  O2-  O168  1  0.92150000  0.20216667  0.28600000  1.0
  O2-  O169  1  0.92150000  0.20216667  0.61933333  1.0
  O2-  O170  1  0.92150000  0.20216667  0.95266667  1.0
  O2-  O171  1  0.42150000  0.20216667  0.28600000  1.0
  O2-  O172  1  0.42150000  0.20216667  0.61933333  1.0
  O2-  O173  1  0.42150000  0.20216667  0.95266667  1.0
  O2-  O174  1  0.92150000  0.70216667  0.28600000  1.0
  O2-  O175  1  0.92150000  0.70216667  0.61933333  1.0
  O2-  O176  1  0.92150000  0.70216667  0.95266667  1.0
  O2-  O177  1  0.42150000  0.70216667  0.28600000  1.0
  O2-  O178  1  0.42150000  0.70216667  0.61933333  1.0
  O2-  O179  1  0.42150000  0.70216667  0.95266667  1.0
  O2-  O180  1  0.57850000  0.63116667  0.04733333  1.0
  O2-  O181  1  0.57850000  0.63116667  0.38066667  1.0
  O2-  O182  1  0.57850000  0.63116667  0.71400000  1.0
  O2-  O183  1  0.07850000  0.63116667  0.04733333  1.0
  O2-  O184  1  0.07850000  0.63116667  0.38066667  1.0
  O2-  O185  1  0.07850000  0.63116667  0.71400000  1.0
  O2-  O186  1  0.57850000  0.13116667  0.04733333  1.0
  O2-  O187  1  0.57850000  0.13116667  0.38066667  1.0
  O2-  O188  1  0.57850000  0.13116667  0.71400000  1.0
  O2-  O189  1  0.07850000  0.13116667  0.04733333  1.0
  O2-  O190  1  0.07850000  0.13116667  0.38066667  1.0
  O2-  O191  1  0.07850000  0.13116667  0.71400000  1.0
