# generated using pymatgen
data_LiBiO2
_symmetry_space_group_name_H-M   'P 1'
_cell_length_a   9.99800000
_cell_length_b   10.41600000
_cell_length_c   29.14754928
_cell_angle_alpha   105.54622182
_cell_angle_beta   104.90754514
_cell_angle_gamma   90.00000000
_symmetry_Int_Tables_number   1
_chemical_formula_structural   LiBiO2
_chemical_formula_sum   'Li48 Bi48 O96'
_cell_volume   2818.16209569
_cell_formula_units_Z   48
loop_
 _symmetry_equiv_pos_site_id
 _symmetry_equiv_pos_as_xyz
  1  'x, y, z'
loop_
 _atom_type_symbol
 _atom_type_oxidation_number
  Li+  1.0
  Bi3+  3.0
  O2-  -2.0
loop_
 _atom_site_type_symbol
 _atom_site_label
 _atom_site_symmetry_multiplicity
 _atom_site_fract_x
 _atom_site_fract_y
 _atom_site_fract_z
 _atom_site_occupancy
  Li+  Li1  1  0.23000000  0.10500000  0.14000000  1.0
  Li+  Li1  1  0.23000000  0.10500000  0.47333333  1.0
  Li+  Li1  1  0.23000000  0.10500000  0.80666667  1.0
  Li+  Li1  1  0.23000000  0.60500000  0.14000000  1.0
  Li+  Li1  1  0.23000000  0.60500000  0.47333333  1.0
  Li+  Li1  1  0.23000000  0.60500000  0.80666667  1.0
  Li+  Li1  1  0.73000000  0.10500000  0.14000000  1.0
  Li+  Li1  1  0.73000000  0.10500000  0.47333333  1.0
  Li+  Li1  1  0.73000000  0.10500000  0.80666667  1.0
  Li+  Li1  1  0.73000000  0.60500000  0.14000000  1.0
  Li+  Li1  1  0.73000000  0.60500000  0.47333333  1.0
  Li+  Li1  1  0.73000000  0.60500000  0.80666667  1.0
  Li+  Li1  1  0.02000000  0.39500000  0.19333333  1.0
  Li+  Li1  1  0.02000000  0.39500000  0.52666667  1.0
  Li+  Li1  1  0.02000000  0.39500000  0.86000000  1.0
  Li+  Li1  1  0.02000000  0.89500000  0.19333333  1.0
  Li+  Li1  1  0.02000000  0.89500000  0.52666667  1.0
  Li+  Li1  1  0.02000000  0.89500000  0.86000000  1.0
  Li+  Li1  1  0.52000000  0.39500000  0.19333333  1.0
  Li+  Li1  1  0.52000000  0.39500000  0.52666667  1.0
  Li+  Li1  1  0.52000000  0.39500000  0.86000000  1.0
  Li+  Li1  1  0.52000000  0.89500000  0.19333333  1.0
  Li+  Li1  1  0.52000000  0.89500000  0.52666667  1.0
  Li+  Li1  1  0.52000000  0.89500000  0.86000000  1.0
  Li+  Li1  1  0.27000000  0.39500000  0.19333333  1.0
  Li+  Li1  1  0.27000000  0.39500000  0.52666667  1.0
  Li+  Li1  1  0.27000000  0.39500000  0.86000000  1.0
  Li+  Li1  1  0.27000000  0.89500000  0.19333333  1.0
  Li+  Li1  1  0.27000000  0.89500000  0.52666667  1.0
  Li+  Li1  1  0.27000000  0.89500000  0.86000000  1.0
  Li+  Li1  1  0.77000000  0.39500000  0.19333333  1.0
  Li+  Li1  1  0.77000000  0.39500000  0.52666667  1.0
  Li+  Li1  1  0.77000000  0.39500000  0.86000000  1.0
  Li+  Li1  1  0.77000000  0.89500000  0.19333333  1.0
  Li+  Li1  1  0.77000000  0.89500000  0.52666667  1.0
  Li+  Li1  1  0.77000000  0.89500000  0.86000000  1.0
  Li+  Li1  1  0.48000000  0.10500000  0.14000000  1.0
  Li+  Li1  1  0.48000000  0.10500000  0.47333333  1.0
  Li+  Li1  1  0.48000000  0.10500000  0.80666667  1.0
  Li+  Li1  1  0.48000000  0.60500000  0.14000000  1.0
  Li+  Li1  1  0.48000000  0.60500000  0.47333333  1.0
  Li+  Li1  1  0.48000000  0.60500000  0.80666667  1.0
  Li+  Li1  1  0.98000000  0.10500000  0.14000000  1.0
  Li+  Li1  1  0.98000000  0.10500000  0.47333333  1.0
  Li+  Li1  1  0.98000000  0.10500000  0.80666667  1.0
  Li+  Li1  1  0.98000000  0.60500000  0.14000000  1.0
  Li+  Li1  1  0.98000000  0.60500000  0.47333333  1.0
  Li+  Li1  1  0.98000000  0.60500000  0.80666667  1.0
  Bi3+  Bi1  1  0.30300000  0.43500000  0.07066667  1.0
  Bi3+  Bi1  1  0.30300000  0.43500000  0.40400000  1.0
  Bi3+  Bi1  1  0.30300000  0.43500000  0.73733333  1.0
  Bi3+  Bi1  1  0.30300000  0.93500000  0.07066667  1.0
  Bi3+  Bi1  1  0.30300000  0.93500000  0.40400000  1.0
  Bi3+  Bi1  1  0.30300000  0.93500000  0.73733333  1.0
  Bi3+  Bi1  1  0.80300000  0.43500000  0.07066667  1.0
  Bi3+  Bi1  1  0.80300000  0.43500000  0.40400000  1.0
  Bi3+  Bi1  1  0.80300000  0.43500000  0.73733333  1.0
  Bi3+  Bi1  1  0.80300000  0.93500000  0.07066667  1.0
  Bi3+  Bi1  1  0.80300000  0.93500000  0.40400000  1.0
  Bi3+  Bi1  1  0.80300000  0.93500000  0.73733333  1.0
  Bi3+  Bi1  1  0.19700000  0.06500000  0.26266667  1.0
  Bi3+  Bi1  1  0.19700000  0.06500000  0.59600000  1.0
  Bi3+  Bi1  1  0.19700000  0.06500000  0.92933333  1.0
  Bi3+  Bi1  1  0.19700000  0.56500000  0.26266667  1.0
  Bi3+  Bi1  1  0.19700000  0.56500000  0.59600000  1.0
  Bi3+  Bi1  1  0.19700000  0.56500000  0.92933333  1.0
  Bi3+  Bi1  1  0.69700000  0.06500000  0.26266667  1.0
  Bi3+  Bi1  1  0.69700000  0.06500000  0.59600000  1.0
  Bi3+  Bi1  1  0.69700000  0.06500000  0.92933333  1.0
  Bi3+  Bi1  1  0.69700000  0.56500000  0.26266667  1.0
  Bi3+  Bi1  1  0.69700000  0.56500000  0.59600000  1.0
  Bi3+  Bi1  1  0.69700000  0.56500000  0.92933333  1.0
  Bi3+  Bi1  1  0.44700000  0.32900000  0.26266667  1.0
  Bi3+  Bi1  1  0.44700000  0.32900000  0.59600000  1.0
  Bi3+  Bi1  1  0.44700000  0.32900000  0.92933333  1.0
  Bi3+  Bi1  1  0.44700000  0.82900000  0.26266667  1.0
  Bi3+  Bi1  1  0.44700000  0.82900000  0.59600000  1.0
  Bi3+  Bi1  1  0.44700000  0.82900000  0.92933333  1.0
  Bi3+  Bi1  1  0.94700000  0.32900000  0.26266667  1.0
  Bi3+  Bi1  1  0.94700000  0.32900000  0.59600000  1.0
  Bi3+  Bi1  1  0.94700000  0.32900000  0.92933333  1.0
  Bi3+  Bi1  1  0.94700000  0.82900000  0.26266667  1.0
  Bi3+  Bi1  1  0.94700000  0.82900000  0.59600000  1.0
  Bi3+  Bi1  1  0.94700000  0.82900000  0.92933333  1.0
  Bi3+  Bi1  1  0.05300000  0.17100000  0.07066667  1.0
  Bi3+  Bi1  1  0.05300000  0.17100000  0.40400000  1.0
  Bi3+  Bi1  1  0.05300000  0.17100000  0.73733333  1.0
  Bi3+  Bi1  1  0.05300000  0.67100000  0.07066667  1.0
  Bi3+  Bi1  1  0.05300000  0.67100000  0.40400000  1.0
  Bi3+  Bi1  1  0.05300000  0.67100000  0.73733333  1.0
  Bi3+  Bi1  1  0.55300000  0.17100000  0.07066667  1.0
  Bi3+  Bi1  1  0.55300000  0.17100000  0.40400000  1.0
  Bi3+  Bi1  1  0.55300000  0.17100000  0.73733333  1.0
  Bi3+  Bi1  1  0.55300000  0.67100000  0.07066667  1.0
  Bi3+  Bi1  1  0.55300000  0.67100000  0.40400000  1.0
  Bi3+  Bi1  1  0.55300000  0.67100000  0.73733333  1.0
  O2-  O1  1  0.35300000  0.49750000  0.13733333  1.0
  O2-  O1  1  0.35300000  0.49750000  0.47066667  1.0
  O2-  O1  1  0.35300000  0.49750000  0.80400000  1.0
  O2-  O1  1  0.35300000  0.99750000  0.13733333  1.0
  O2-  O1  1  0.35300000  0.99750000  0.47066667  1.0
  O2-  O1  1  0.35300000  0.99750000  0.80400000  1.0
  O2-  O1  1  0.85300000  0.49750000  0.13733333  1.0
  O2-  O1  1  0.85300000  0.49750000  0.47066667  1.0
  O2-  O1  1  0.85300000  0.49750000  0.80400000  1.0
  O2-  O1  1  0.85300000  0.99750000  0.13733333  1.0
  O2-  O1  1  0.85300000  0.99750000  0.47066667  1.0
  O2-  O1  1  0.85300000  0.99750000  0.80400000  1.0
  O2-  O1  1  0.14700000  0.00250000  0.19600000  1.0
  O2-  O1  1  0.14700000  0.00250000  0.52933333  1.0
  O2-  O1  1  0.14700000  0.00250000  0.86266667  1.0
  O2-  O1  1  0.14700000  0.50250000  0.19600000  1.0
  O2-  O1  1  0.14700000  0.50250000  0.52933333  1.0
  O2-  O1  1  0.14700000  0.50250000  0.86266667  1.0
  O2-  O1  1  0.64700000  0.00250000  0.19600000  1.0
  O2-  O1  1  0.64700000  0.00250000  0.52933333  1.0
  O2-  O1  1  0.64700000  0.00250000  0.86266667  1.0
  O2-  O1  1  0.64700000  0.50250000  0.19600000  1.0
  O2-  O1  1  0.64700000  0.50250000  0.52933333  1.0
  O2-  O1  1  0.64700000  0.50250000  0.86266667  1.0
  O2-  O1  1  0.39700000  0.29150000  0.19600000  1.0
  O2-  O1  1  0.39700000  0.29150000  0.52933333  1.0
  O2-  O1  1  0.39700000  0.29150000  0.86266667  1.0
  O2-  O1  1  0.39700000  0.79150000  0.19600000  1.0
  O2-  O1  1  0.39700000  0.79150000  0.52933333  1.0
  O2-  O1  1  0.39700000  0.79150000  0.86266667  1.0
  O2-  O1  1  0.89700000  0.29150000  0.19600000  1.0
  O2-  O1  1  0.89700000  0.29150000  0.52933333  1.0
  O2-  O1  1  0.89700000  0.29150000  0.86266667  1.0
  O2-  O1  1  0.89700000  0.79150000  0.19600000  1.0
  O2-  O1  1  0.89700000  0.79150000  0.52933333  1.0
  O2-  O1  1  0.89700000  0.79150000  0.86266667  1.0
  O2-  O1  1  0.10300000  0.20850000  0.13733333  1.0
  O2-  O1  1  0.10300000  0.20850000  0.47066667  1.0
  O2-  O1  1  0.10300000  0.20850000  0.80400000  1.0
  O2-  O1  1  0.10300000  0.70850000  0.13733333  1.0
  O2-  O1  1  0.10300000  0.70850000  0.47066667  1.0
  O2-  O1  1  0.10300000  0.70850000  0.80400000  1.0
  O2-  O1  1  0.60300000  0.20850000  0.13733333  1.0
  O2-  O1  1  0.60300000  0.20850000  0.47066667  1.0
  O2-  O1  1  0.60300000  0.20850000  0.80400000  1.0
  O2-  O1  1  0.60300000  0.70850000  0.13733333  1.0
  O2-  O1  1  0.60300000  0.70850000  0.47066667  1.0
  O2-  O1  1  0.60300000  0.70850000  0.80400000  1.0
  O2-  O2  1  0.28550000  0.14950000  0.04733333  1.0
  O2-  O2  1  0.28550000  0.14950000  0.38066667  1.0
  O2-  O2  1  0.28550000  0.14950000  0.71400000  1.0
  O2-  O2  1  0.28550000  0.64950000  0.04733333  1.0
  O2-  O2  1  0.28550000  0.64950000  0.38066667  1.0
  O2-  O2  1  0.28550000  0.64950000  0.71400000  1.0
  O2-  O2  1  0.78550000  0.14950000  0.04733333  1.0
  O2-  O2  1  0.78550000  0.14950000  0.38066667  1.0
  O2-  O2  1  0.78550000  0.14950000  0.71400000  1.0
  O2-  O2  1  0.78550000  0.64950000  0.04733333  1.0
  O2-  O2  1  0.78550000  0.64950000  0.38066667  1.0
  O2-  O2  1  0.78550000  0.64950000  0.71400000  1.0
  O2-  O2  1  0.21450000  0.35050000  0.28600000  1.0
  O2-  O2  1  0.21450000  0.35050000  0.61933333  1.0
  O2-  O2  1  0.21450000  0.35050000  0.95266667  1.0
  O2-  O2  1  0.21450000  0.85050000  0.28600000  1.0
  O2-  O2  1  0.21450000  0.85050000  0.61933333  1.0
  O2-  O2  1  0.21450000  0.85050000  0.95266667  1.0
  O2-  O2  1  0.71450000  0.35050000  0.28600000  1.0
  O2-  O2  1  0.71450000  0.35050000  0.61933333  1.0
  O2-  O2  1  0.71450000  0.35050000  0.95266667  1.0
  O2-  O2  1  0.71450000  0.85050000  0.28600000  1.0
  O2-  O2  1  0.71450000  0.85050000  0.61933333  1.0
  O2-  O2  1  0.71450000  0.85050000  0.95266667  1.0
  O2-  O2  1  0.46450000  0.07850000  0.28600000  1.0
  O2-  O2  1  0.46450000  0.07850000  0.61933333  1.0
  O2-  O2  1  0.46450000  0.07850000  0.95266667  1.0
  O2-  O2  1  0.46450000  0.57850000  0.28600000  1.0
  O2-  O2  1  0.46450000  0.57850000  0.61933333  1.0
  O2-  O2  1  0.46450000  0.57850000  0.95266667  1.0
  O2-  O2  1  0.96450000  0.07850000  0.28600000  1.0
  O2-  O2  1  0.96450000  0.07850000  0.61933333  1.0
  O2-  O2  1  0.96450000  0.07850000  0.95266667  1.0
  O2-  O2  1  0.96450000  0.57850000  0.28600000  1.0
  O2-  O2  1  0.96450000  0.57850000  0.61933333  1.0
  O2-  O2  1  0.96450000  0.57850000  0.95266667  1.0
  O2-  O2  1  0.03550000  0.42150000  0.04733333  1.0
  O2-  O2  1  0.03550000  0.42150000  0.38066667  1.0
  O2-  O2  1  0.03550000  0.42150000  0.71400000  1.0
  O2-  O2  1  0.03550000  0.92150000  0.04733333  1.0
  O2-  O2  1  0.03550000  0.92150000  0.38066667  1.0
  O2-  O2  1  0.03550000  0.92150000  0.71400000  1.0
  O2-  O2  1  0.53550000  0.42150000  0.04733333  1.0
  O2-  O2  1  0.53550000  0.42150000  0.38066667  1.0
  O2-  O2  1  0.53550000  0.42150000  0.71400000  1.0
  O2-  O2  1  0.53550000  0.92150000  0.04733333  1.0
  O2-  O2  1  0.53550000  0.92150000  0.38066667  1.0
  O2-  O2  1  0.53550000  0.92150000  0.71400000  1.0
