# generated using pymatgen
data_LiNdTiO4
_symmetry_space_group_name_H-M   'P 1'
_cell_length_a   22.47900000
_cell_length_b   7.49300000
_cell_length_c   11.89500000
_cell_angle_alpha   90.00000000
_cell_angle_beta   90.00000000
_cell_angle_gamma   90.00000000
_symmetry_Int_Tables_number   1
_chemical_formula_structural   LiNdTiO4
_chemical_formula_sum   'Li24 Nd24 Ti24 O96'
_cell_volume   2003.53607356
_cell_formula_units_Z   24
loop_
 _symmetry_equiv_pos_site_id
 _symmetry_equiv_pos_as_xyz
  1  'x, y, z'
loop_
 _atom_type_symbol
 _atom_type_oxidation_number
  Li+  1.0
  Nd3+  3.0
  Ti4+  4.0
  O2-  -2.0
loop_
 _atom_site_type_symbol
 _atom_site_label
 _atom_site_symmetry_multiplicity
 _atom_site_fract_x
 _atom_site_fract_y
 _atom_site_fract_z
 _atom_site_occupancy
  Li+  Li1  1  0.04166667  0.37500000  0.50000000  1.0
  Li+  Li1  1  0.37500000  0.37500000  0.50000000  1.0
  Li+  Li1  1  0.70833333  0.37500000  0.50000000  1.0
  Li+  Li1  1  0.04166667  0.87500000  0.50000000  1.0
  Li+  Li1  1  0.37500000  0.87500000  0.50000000  1.0
  Li+  Li1  1  0.70833333  0.87500000  0.50000000  1.0
  Li+  Li1  1  0.20833333  0.37500000  0.50000000  1.0
  Li+  Li1  1  0.54166667  0.37500000  0.50000000  1.0
  Li+  Li1  1  0.87500000  0.37500000  0.50000000  1.0
  Li+  Li1  1  0.20833333  0.87500000  0.50000000  1.0
  Li+  Li1  1  0.54166667  0.87500000  0.50000000  1.0
  Li+  Li1  1  0.87500000  0.87500000  0.50000000  1.0
  Li+  Li1  1  0.12500000  0.12500000  0.50000000  1.0
  Li+  Li1  1  0.45833333  0.12500000  0.50000000  1.0
  Li+  Li1  1  0.79166667  0.12500000  0.50000000  1.0
  Li+  Li1  1  0.12500000  0.62500000  0.50000000  1.0
  Li+  Li1  1  0.45833333  0.62500000  0.50000000  1.0
  Li+  Li1  1  0.79166667  0.62500000  0.50000000  1.0
  Li+  Li1  1  0.29166667  0.12500000  0.50000000  1.0
  Li+  Li1  1  0.62500000  0.12500000  0.50000000  1.0
  Li+  Li1  1  0.95833333  0.12500000  0.50000000  1.0
  Li+  Li1  1  0.29166667  0.62500000  0.50000000  1.0
  Li+  Li1  1  0.62500000  0.62500000  0.50000000  1.0
  Li+  Li1  1  0.95833333  0.62500000  0.50000000  1.0
  Nd3+  Nd1  1  0.12500000  0.37500000  0.11760000  1.0
  Nd3+  Nd1  1  0.45833333  0.37500000  0.11760000  1.0
  Nd3+  Nd1  1  0.79166667  0.37500000  0.11760000  1.0
  Nd3+  Nd1  1  0.12500000  0.87500000  0.11760000  1.0
  Nd3+  Nd1  1  0.45833333  0.87500000  0.11760000  1.0
  Nd3+  Nd1  1  0.79166667  0.87500000  0.11760000  1.0
  Nd3+  Nd1  1  0.29166667  0.37500000  0.11760000  1.0
  Nd3+  Nd1  1  0.62500000  0.37500000  0.11760000  1.0
  Nd3+  Nd1  1  0.95833333  0.37500000  0.11760000  1.0
  Nd3+  Nd1  1  0.29166667  0.87500000  0.11760000  1.0
  Nd3+  Nd1  1  0.62500000  0.87500000  0.11760000  1.0
  Nd3+  Nd1  1  0.95833333  0.87500000  0.11760000  1.0
  Nd3+  Nd1  1  0.04166667  0.12500000  0.88240000  1.0
  Nd3+  Nd1  1  0.37500000  0.12500000  0.88240000  1.0
  Nd3+  Nd1  1  0.70833333  0.12500000  0.88240000  1.0
  Nd3+  Nd1  1  0.04166667  0.62500000  0.88240000  1.0
  Nd3+  Nd1  1  0.37500000  0.62500000  0.88240000  1.0
  Nd3+  Nd1  1  0.70833333  0.62500000  0.88240000  1.0
  Nd3+  Nd1  1  0.20833333  0.12500000  0.88240000  1.0
  Nd3+  Nd1  1  0.54166667  0.12500000  0.88240000  1.0
  Nd3+  Nd1  1  0.87500000  0.12500000  0.88240000  1.0
  Nd3+  Nd1  1  0.20833333  0.62500000  0.88240000  1.0
  Nd3+  Nd1  1  0.54166667  0.62500000  0.88240000  1.0
  Nd3+  Nd1  1  0.87500000  0.62500000  0.88240000  1.0
  Ti4+  Ti1  1  0.12500000  0.37500000  0.70860000  1.0
  Ti4+  Ti1  1  0.45833333  0.37500000  0.70860000  1.0
  Ti4+  Ti1  1  0.79166667  0.37500000  0.70860000  1.0
  Ti4+  Ti1  1  0.12500000  0.87500000  0.70860000  1.0
  Ti4+  Ti1  1  0.45833333  0.87500000  0.70860000  1.0
  Ti4+  Ti1  1  0.79166667  0.87500000  0.70860000  1.0
  Ti4+  Ti1  1  0.29166667  0.37500000  0.70860000  1.0
  Ti4+  Ti1  1  0.62500000  0.37500000  0.70860000  1.0
  Ti4+  Ti1  1  0.95833333  0.37500000  0.70860000  1.0
  Ti4+  Ti1  1  0.29166667  0.87500000  0.70860000  1.0
  Ti4+  Ti1  1  0.62500000  0.87500000  0.70860000  1.0
  Ti4+  Ti1  1  0.95833333  0.87500000  0.70860000  1.0
  Ti4+  Ti1  1  0.04166667  0.12500000  0.29140000  1.0
  Ti4+  Ti1  1  0.37500000  0.12500000  0.29140000  1.0
  Ti4+  Ti1  1  0.70833333  0.12500000  0.29140000  1.0
  Ti4+  Ti1  1  0.04166667  0.62500000  0.29140000  1.0
  Ti4+  Ti1  1  0.37500000  0.62500000  0.29140000  1.0
  Ti4+  Ti1  1  0.70833333  0.62500000  0.29140000  1.0
  Ti4+  Ti1  1  0.20833333  0.12500000  0.29140000  1.0
  Ti4+  Ti1  1  0.54166667  0.12500000  0.29140000  1.0
  Ti4+  Ti1  1  0.87500000  0.12500000  0.29140000  1.0
  Ti4+  Ti1  1  0.20833333  0.62500000  0.29140000  1.0
  Ti4+  Ti1  1  0.54166667  0.62500000  0.29140000  1.0
  Ti4+  Ti1  1  0.87500000  0.62500000  0.29140000  1.0
  O2-  O1  1  0.12500000  0.12500000  0.25300000  1.0
  O2-  O1  1  0.45833333  0.12500000  0.25300000  1.0
  O2-  O1  1  0.79166667  0.12500000  0.25300000  1.0
  O2-  O1  1  0.12500000  0.62500000  0.25300000  1.0
  O2-  O1  1  0.45833333  0.62500000  0.25300000  1.0
  O2-  O1  1  0.79166667  0.62500000  0.25300000  1.0
  O2-  O1  1  0.29166667  0.12500000  0.25300000  1.0
  O2-  O1  1  0.62500000  0.12500000  0.25300000  1.0
  O2-  O1  1  0.95833333  0.12500000  0.25300000  1.0
  O2-  O1  1  0.29166667  0.62500000  0.25300000  1.0
  O2-  O1  1  0.62500000  0.62500000  0.25300000  1.0
  O2-  O1  1  0.95833333  0.62500000  0.25300000  1.0
  O2-  O1  1  0.04166667  0.37500000  0.25300000  1.0
  O2-  O1  1  0.37500000  0.37500000  0.25300000  1.0
  O2-  O1  1  0.70833333  0.37500000  0.25300000  1.0
  O2-  O1  1  0.04166667  0.87500000  0.25300000  1.0
  O2-  O1  1  0.37500000  0.87500000  0.25300000  1.0
  O2-  O1  1  0.70833333  0.87500000  0.25300000  1.0
  O2-  O1  1  0.20833333  0.37500000  0.25300000  1.0
  O2-  O1  1  0.54166667  0.37500000  0.25300000  1.0
  O2-  O1  1  0.87500000  0.37500000  0.25300000  1.0
  O2-  O1  1  0.20833333  0.87500000  0.25300000  1.0
  O2-  O1  1  0.54166667  0.87500000  0.25300000  1.0
  O2-  O1  1  0.87500000  0.87500000  0.25300000  1.0
  O2-  O1  1  0.04166667  0.37500000  0.74700000  1.0
  O2-  O1  1  0.37500000  0.37500000  0.74700000  1.0
  O2-  O1  1  0.70833333  0.37500000  0.74700000  1.0
  O2-  O1  1  0.04166667  0.87500000  0.74700000  1.0
  O2-  O1  1  0.37500000  0.87500000  0.74700000  1.0
  O2-  O1  1  0.70833333  0.87500000  0.74700000  1.0
  O2-  O1  1  0.20833333  0.37500000  0.74700000  1.0
  O2-  O1  1  0.54166667  0.37500000  0.74700000  1.0
  O2-  O1  1  0.87500000  0.37500000  0.74700000  1.0
  O2-  O1  1  0.20833333  0.87500000  0.74700000  1.0
  O2-  O1  1  0.54166667  0.87500000  0.74700000  1.0
  O2-  O1  1  0.87500000  0.87500000  0.74700000  1.0
  O2-  O1  1  0.12500000  0.12500000  0.74700000  1.0
  O2-  O1  1  0.45833333  0.12500000  0.74700000  1.0
  O2-  O1  1  0.79166667  0.12500000  0.74700000  1.0
  O2-  O1  1  0.12500000  0.62500000  0.74700000  1.0
  O2-  O1  1  0.45833333  0.62500000  0.74700000  1.0
  O2-  O1  1  0.79166667  0.62500000  0.74700000  1.0
  O2-  O1  1  0.29166667  0.12500000  0.74700000  1.0
  O2-  O1  1  0.62500000  0.12500000  0.74700000  1.0
  O2-  O1  1  0.95833333  0.12500000  0.74700000  1.0
  O2-  O1  1  0.29166667  0.62500000  0.74700000  1.0
  O2-  O1  1  0.62500000  0.62500000  0.74700000  1.0
  O2-  O1  1  0.95833333  0.62500000  0.74700000  1.0
  O2-  O2  1  0.12500000  0.37500000  0.56060000  1.0
  O2-  O2  1  0.45833333  0.37500000  0.56060000  1.0
  O2-  O2  1  0.79166667  0.37500000  0.56060000  1.0
  O2-  O2  1  0.12500000  0.87500000  0.56060000  1.0
  O2-  O2  1  0.45833333  0.87500000  0.56060000  1.0
  O2-  O2  1  0.79166667  0.87500000  0.56060000  1.0
  O2-  O2  1  0.29166667  0.37500000  0.56060000  1.0
  O2-  O2  1  0.62500000  0.37500000  0.56060000  1.0
  O2-  O2  1  0.95833333  0.37500000  0.56060000  1.0
  O2-  O2  1  0.29166667  0.87500000  0.56060000  1.0
  O2-  O2  1  0.62500000  0.87500000  0.56060000  1.0
  O2-  O2  1  0.95833333  0.87500000  0.56060000  1.0
  O2-  O2  1  0.04166667  0.12500000  0.43940000  1.0
  O2-  O2  1  0.37500000  0.12500000  0.43940000  1.0
  O2-  O2  1  0.70833333  0.12500000  0.43940000  1.0
  O2-  O2  1  0.04166667  0.62500000  0.43940000  1.0
  O2-  O2  1  0.37500000  0.62500000  0.43940000  1.0
  O2-  O2  1  0.70833333  0.62500000  0.43940000  1.0
  O2-  O2  1  0.20833333  0.12500000  0.43940000  1.0
  O2-  O2  1  0.54166667  0.12500000  0.43940000  1.0
  O2-  O2  1  0.87500000  0.12500000  0.43940000  1.0
  O2-  O2  1  0.20833333  0.62500000  0.43940000  1.0
  O2-  O2  1  0.54166667  0.62500000  0.43940000  1.0
  O2-  O2  1  0.87500000  0.62500000  0.43940000  1.0
  O2-  O3  1  0.12500000  0.37500000  0.91820000  1.0
  O2-  O3  1  0.45833333  0.37500000  0.91820000  1.0
  O2-  O3  1  0.79166667  0.37500000  0.91820000  1.0
  O2-  O3  1  0.12500000  0.87500000  0.91820000  1.0
  O2-  O3  1  0.45833333  0.87500000  0.91820000  1.0
  O2-  O3  1  0.79166667  0.87500000  0.91820000  1.0
  O2-  O3  1  0.29166667  0.37500000  0.91820000  1.0
  O2-  O3  1  0.62500000  0.37500000  0.91820000  1.0
  O2-  O3  1  0.95833333  0.37500000  0.91820000  1.0
  O2-  O3  1  0.29166667  0.87500000  0.91820000  1.0
  O2-  O3  1  0.62500000  0.87500000  0.91820000  1.0
  O2-  O3  1  0.95833333  0.87500000  0.91820000  1.0
  O2-  O3  1  0.04166667  0.12500000  0.08180000  1.0
  O2-  O3  1  0.37500000  0.12500000  0.08180000  1.0
  O2-  O3  1  0.70833333  0.12500000  0.08180000  1.0
  O2-  O3  1  0.04166667  0.62500000  0.08180000  1.0
  O2-  O3  1  0.37500000  0.62500000  0.08180000  1.0
  O2-  O3  1  0.70833333  0.62500000  0.08180000  1.0
  O2-  O3  1  0.20833333  0.12500000  0.08180000  1.0
  O2-  O3  1  0.54166667  0.12500000  0.08180000  1.0
  O2-  O3  1  0.87500000  0.12500000  0.08180000  1.0
  O2-  O3  1  0.20833333  0.62500000  0.08180000  1.0
  O2-  O3  1  0.54166667  0.62500000  0.08180000  1.0
  O2-  O3  1  0.87500000  0.62500000  0.08180000  1.0
