# generated using pymatgen
data_Li79Ge19SbS80
_symmetry_space_group_name_H-M   'P 1'
_cell_length_a   14.05060000
_cell_length_b   30.79610000
_cell_length_c   7.76498000
_cell_angle_alpha   90.00000000
_cell_angle_beta   90.00000000
_cell_angle_gamma   90.00000000
_symmetry_Int_Tables_number   1
_chemical_formula_structural   Li79Ge19SbS80
_chemical_formula_sum   'Li79 Ge19 Sb1 S80'
_cell_volume   3359.93544178
_cell_formula_units_Z   1
loop_
 _symmetry_equiv_pos_site_id
 _symmetry_equiv_pos_as_xyz
  1  'x, y, z'
loop_
 _atom_type_symbol
 _atom_type_oxidation_number
  Li+  1.0
  Ge4+  4.0
  Sb5+  5.0
  S2-  -2.0
loop_
 _atom_site_type_symbol
 _atom_site_label
 _atom_site_symmetry_multiplicity
 _atom_site_fract_x
 _atom_site_fract_y
 _atom_site_fract_z
 _atom_site_occupancy
  Li+  Li0  1  0.16900000  0.96160000  0.25700000  1.0
  Li+  Li1  1  0.66900000  0.53840000  0.25700000  1.0
  Li+  Li2  1  0.83100000  0.23840000  0.75700000  1.0
  Li+  Li3  1  0.33100000  0.26160000  0.75700000  1.0
  Li+  Li4  1  0.00480000  0.90420000  0.77400000  1.0
  Li+  Li5  1  0.00480000  0.70420000  0.77400000  1.0
  Li+  Li6  1  0.99845269  0.89306644  0.72881010  1.0
  Li+  Li7  1  0.99520000  0.49580000  0.72600000  1.0
  Li+  Li8  1  0.99348097  0.29527715  0.72735924  1.0
  Li+  Li9  1  0.99520000  0.09580000  0.72600000  1.0
  Li+  Li10  1  0.49280071  0.60515283  0.72646767  1.0
  Li+  Li11  1  0.48924283  0.40422524  0.72523105  1.0
  Li+  Li12  1  0.49520000  0.20420000  0.72600000  1.0
  Li+  Li13  1  0.49520000  0.00420000  0.72600000  1.0
  Li+  Li14  1  0.50574090  0.79564398  0.77101343  1.0
  Li+  Li15  1  0.50612100  0.19563428  0.77496667  1.0
  Li+  Li16  1  0.99520000  0.69580000  0.27400000  1.0
  Li+  Li17  1  0.00777508  0.90668964  0.22591159  1.0
  Li+  Li18  1  0.00672058  0.30120422  0.22832682  1.0
  Li+  Li19  1  0.50480000  0.59580000  0.22600000  1.0
  Li+  Li20  1  0.50480000  0.39580000  0.22600000  1.0
  Li+  Li21  1  0.50480000  0.19580000  0.22600000  1.0
  Li+  Li22  1  0.49261953  0.80290317  0.27536914  1.0
  Li+  Li23  1  0.49520000  0.00420000  0.27400000  1.0
  Li+  Li24  1  0.17640000  0.93736000  0.74990000  1.0
  Li+  Li25  1  0.17640000  0.73736000  0.74990000  1.0
  Li+  Li26  1  0.17640000  0.53736000  0.74990000  1.0
  Li+  Li27  1  0.17640000  0.33736000  0.74990000  1.0
  Li+  Li28  1  0.17640000  0.13736000  0.74990000  1.0
  Li+  Li29  1  0.82371806  0.86369938  0.74439063  1.0
  Li+  Li30  1  0.82360000  0.66264000  0.75010000  1.0
  Li+  Li31  1  0.82360000  0.46264000  0.75010000  1.0
  Li+  Li32  1  0.82360000  0.26264000  0.75010000  1.0
  Li+  Li33  1  0.82360000  0.06264000  0.75010000  1.0
  Li+  Li34  1  0.32360000  0.83736000  0.75010000  1.0
  Li+  Li35  1  0.32360000  0.63736000  0.75010000  1.0
  Li+  Li36  1  0.32360000  0.43736000  0.75010000  1.0
  Li+  Li37  1  0.32360000  0.23736000  0.75010000  1.0
  Li+  Li38  1  0.32565801  0.03924986  0.75397479  1.0
  Li+  Li39  1  0.68087671  0.96377704  0.75060751  1.0
  Li+  Li40  1  0.67640000  0.76264000  0.74990000  1.0
  Li+  Li41  1  0.67734435  0.56642498  0.74641576  1.0
  Li+  Li42  1  0.67640000  0.36264000  0.74990000  1.0
  Li+  Li43  1  0.67431354  0.16362492  0.75104356  1.0
  Li+  Li44  1  0.82360000  0.86264000  0.24990000  1.0
  Li+  Li45  1  0.82360000  0.66264000  0.24990000  1.0
  Li+  Li46  1  0.82360000  0.46264000  0.24990000  1.0
  Li+  Li47  1  0.82360000  0.26264000  0.24990000  1.0
  Li+  Li48  1  0.82360000  0.06264000  0.24990000  1.0
  Li+  Li49  1  0.17640000  0.93736000  0.25010000  1.0
  Li+  Li50  1  0.17939460  0.73314285  0.24931218  1.0
  Li+  Li51  1  0.17640000  0.53736000  0.25010000  1.0
  Li+  Li52  1  0.17640000  0.33736000  0.25010000  1.0
  Li+  Li53  1  0.17640000  0.13736000  0.25010000  1.0
  Li+  Li54  1  0.67640000  0.96264000  0.25010000  1.0
  Li+  Li55  1  0.67640000  0.56264000  0.25010000  1.0
  Li+  Li56  1  0.67640000  0.36264000  0.25010000  1.0
  Li+  Li57  1  0.67640000  0.16264000  0.25010000  1.0
  Li+  Li58  1  0.32360000  0.83736000  0.24990000  1.0
  Li+  Li59  1  0.32360000  0.63736000  0.24990000  1.0
  Li+  Li60  1  0.32360000  0.43736000  0.24990000  1.0
  Li+  Li61  1  0.32360000  0.23736000  0.24990000  1.0
  Li+  Li62  1  0.32360000  0.03736000  0.24990000  1.0
  Li+  Li63  1  0.41200000  0.92602000  0.00000000  1.0
  Li+  Li64  1  0.41200000  0.72602000  0.00000000  1.0
  Li+  Li65  1  0.41200000  0.52602000  0.00000000  1.0
  Li+  Li66  1  0.58800000  0.87398000  0.50000000  1.0
  Li+  Li67  1  0.58800000  0.67398000  0.50000000  1.0
  Li+  Li68  1  0.58800000  0.47398000  0.50000000  1.0
  Li+  Li69  1  0.58800000  0.27398000  0.50000000  1.0
  Li+  Li70  1  0.08800000  0.82602000  0.50000000  1.0
  Li+  Li71  1  0.08800000  0.62602000  0.50000000  1.0
  Li+  Li72  1  0.08950838  0.42873332  0.49950598  1.0
  Li+  Li73  1  0.08584917  0.22199739  0.50256940  1.0
  Li+  Li74  1  0.08800000  0.02602000  0.50000000  1.0
  Li+  Li75  1  0.91200000  0.97398000  0.00000000  1.0
  Li+  Li76  1  0.91200000  0.77398000  0.00000000  1.0
  Li+  Li77  1  0.91200000  0.37398000  0.00000000  1.0
  Li+  Li78  1  0.91200000  0.17398000  0.00000000  1.0
  Ge4+  Ge79  1  0.41106000  0.92967200  0.50000000  1.0
  Ge4+  Ge80  1  0.40603324  0.72897378  0.50369851  1.0
  Ge4+  Ge81  1  0.41106000  0.52967200  0.50000000  1.0
  Ge4+  Ge82  1  0.41106000  0.32967200  0.50000000  1.0
  Ge4+  Ge83  1  0.40801836  0.13095786  0.50168610  1.0
  Ge4+  Ge84  1  0.58894000  0.87032800  0.00000000  1.0
  Ge4+  Ge85  1  0.58894000  0.67032800  0.00000000  1.0
  Ge4+  Ge86  1  0.58894000  0.47032800  0.00000000  1.0
  Ge4+  Ge87  1  0.58894000  0.27032800  0.00000000  1.0
  Ge4+  Ge88  1  0.58894000  0.07032800  0.00000000  1.0
  Ge4+  Ge89  1  0.08666296  0.82769708  0.00507609  1.0
  Ge4+  Ge90  1  0.08894000  0.62967200  0.00000000  1.0
  Ge4+  Ge91  1  0.08894000  0.42967200  0.00000000  1.0
  Ge4+  Ge92  1  0.08997802  0.23269741  0.99881659  1.0
  Ge4+  Ge93  1  0.08894000  0.02967200  0.00000000  1.0
  Ge4+  Ge94  1  0.91106000  0.77032800  0.50000000  1.0
  Ge4+  Ge95  1  0.91047446  0.57193378  0.50182349  1.0
  Ge4+  Ge96  1  0.91207506  0.37247068  0.50010908  1.0
  Ge4+  Ge97  1  0.91106000  0.17032800  0.50000000  1.0
  Sb5+  Sb98  1  0.90843265  0.96900269  0.49902849  1.0
  S2-  S99  1  0.34305000  0.95566000  0.73470000  1.0
  S2-  S100  1  0.34305000  0.75566000  0.73470000  1.0
  S2-  S101  1  0.34305000  0.55566000  0.73470000  1.0
  S2-  S102  1  0.34305000  0.35566000  0.73470000  1.0
  S2-  S103  1  0.34305000  0.15566000  0.73470000  1.0
  S2-  S104  1  0.65695000  0.84434000  0.76530000  1.0
  S2-  S105  1  0.65695000  0.64434000  0.76530000  1.0
  S2-  S106  1  0.65695000  0.44434000  0.76530000  1.0
  S2-  S107  1  0.65510772  0.24784416  0.76313240  1.0
  S2-  S108  1  0.66036856  0.04656921  0.76212021  1.0
  S2-  S109  1  0.15929081  0.85156870  0.76532465  1.0
  S2-  S110  1  0.15525956  0.65794968  0.75991384  1.0
  S2-  S111  1  0.15695000  0.45566000  0.76530000  1.0
  S2-  S112  1  0.15695000  0.25566000  0.76530000  1.0
  S2-  S113  1  0.15695000  0.05566000  0.76530000  1.0
  S2-  S114  1  0.84305000  0.94434000  0.73470000  1.0
  S2-  S115  1  0.84574677  0.74396656  0.73447876  1.0
  S2-  S116  1  0.84305000  0.54434000  0.73470000  1.0
  S2-  S117  1  0.84202101  0.34660289  0.73400691  1.0
  S2-  S118  1  0.84305000  0.14434000  0.73470000  1.0
  S2-  S119  1  0.65695000  0.84434000  0.23470000  1.0
  S2-  S120  1  0.65695000  0.64434000  0.23470000  1.0
  S2-  S121  1  0.64984101  0.44438588  0.23743816  1.0
  S2-  S122  1  0.65695000  0.24434000  0.23470000  1.0
  S2-  S123  1  0.65614300  0.04390111  0.23843046  1.0
  S2-  S124  1  0.34305000  0.95566000  0.26530000  1.0
  S2-  S125  1  0.33973802  0.76045448  0.26331214  1.0
  S2-  S126  1  0.34305000  0.55566000  0.26530000  1.0
  S2-  S127  1  0.34305000  0.35566000  0.26530000  1.0
  S2-  S128  1  0.34305000  0.15566000  0.26530000  1.0
  S2-  S129  1  0.84305000  0.94434000  0.26530000  1.0
  S2-  S130  1  0.84449912  0.74261907  0.26811738  1.0
  S2-  S131  1  0.84305000  0.54434000  0.26530000  1.0
  S2-  S132  1  0.84305000  0.34434000  0.26530000  1.0
  S2-  S133  1  0.84305000  0.14434000  0.26530000  1.0
  S2-  S134  1  0.15695000  0.85566000  0.23470000  1.0
  S2-  S135  1  0.15695000  0.65566000  0.23470000  1.0
  S2-  S136  1  0.15695000  0.45566000  0.23470000  1.0
  S2-  S137  1  0.15695000  0.25566000  0.23470000  1.0
  S2-  S138  1  0.15695000  0.05566000  0.23470000  1.0
  S2-  S139  1  0.08895416  0.95821747  0.99788513  1.0
  S2-  S140  1  0.08690000  0.75824000  0.00000000  1.0
  S2-  S141  1  0.08690000  0.55824000  0.00000000  1.0
  S2-  S142  1  0.08690000  0.35824000  0.00000000  1.0
  S2-  S143  1  0.08690000  0.15824000  0.00000000  1.0
  S2-  S144  1  0.91260932  0.84372187  0.50142193  1.0
  S2-  S145  1  0.91310000  0.64176000  0.50000000  1.0
  S2-  S146  1  0.91310000  0.44176000  0.50000000  1.0
  S2-  S147  1  0.91452676  0.24175975  0.49992255  1.0
  S2-  S148  1  0.91310000  0.04176000  0.50000000  1.0
  S2-  S149  1  0.41310000  0.85824000  0.50000000  1.0
  S2-  S150  1  0.41310000  0.65824000  0.50000000  1.0
  S2-  S151  1  0.41310000  0.45824000  0.50000000  1.0
  S2-  S152  1  0.41245948  0.25685927  0.50125216  1.0
  S2-  S153  1  0.41310000  0.05824000  0.50000000  1.0
  S2-  S154  1  0.58690000  0.94176000  0.00000000  1.0
  S2-  S155  1  0.58690000  0.74176000  0.00000000  1.0
  S2-  S156  1  0.58690000  0.54176000  0.00000000  1.0
  S2-  S157  1  0.58690000  0.34176000  0.00000000  1.0
  S2-  S158  1  0.58655001  0.14319114  0.00310918  1.0
  S2-  S159  1  0.06150000  0.94648000  0.50000000  1.0
  S2-  S160  1  0.06497634  0.74619471  0.49721894  1.0
  S2-  S161  1  0.06150000  0.54648000  0.50000000  1.0
  S2-  S162  1  0.06236865  0.34711878  0.49851182  1.0
  S2-  S163  1  0.06150000  0.14648000  0.50000000  1.0
  S2-  S164  1  0.93850000  0.85352000  0.00000000  1.0
  S2-  S165  1  0.93850000  0.65352000  0.00000000  1.0
  S2-  S166  1  0.93850000  0.45352000  0.00000000  1.0
  S2-  S167  1  0.94010276  0.25619692  0.00391880  1.0
  S2-  S168  1  0.93850000  0.05352000  0.00000000  1.0
  S2-  S169  1  0.43850000  0.84648000  0.00000000  1.0
  S2-  S170  1  0.43850000  0.64648000  0.00000000  1.0
  S2-  S171  1  0.43850000  0.44648000  0.00000000  1.0
  S2-  S172  1  0.43850000  0.24648000  0.00000000  1.0
  S2-  S173  1  0.43850000  0.04648000  0.00000000  1.0
  S2-  S174  1  0.56150000  0.95352000  0.50000000  1.0
  S2-  S175  1  0.56150000  0.75352000  0.50000000  1.0
  S2-  S176  1  0.56315518  0.55352500  0.50344947  1.0
  S2-  S177  1  0.56244517  0.35223785  0.49804297  1.0
  S2-  S178  1  0.56150000  0.15352000  0.50000000  1.0
