# generated using pymatgen
data_Li79Ge19SbS80
_symmetry_space_group_name_H-M   'P 1'
_cell_length_a   7.80081774
_cell_length_b   14.11544779
_cell_length_c   30.93823336
_cell_angle_alpha   90.00000000
_cell_angle_beta   90.00000000
_cell_angle_gamma   90.00000000
_symmetry_Int_Tables_number   1
_chemical_formula_structural   Li79Ge19SbS80
_chemical_formula_sum   'Li79 Ge19 Sb1 S80'
_cell_volume   3406.67185092
_cell_formula_units_Z   1
loop_
 _symmetry_equiv_pos_site_id
 _symmetry_equiv_pos_as_xyz
  1  'x, y, z'
loop_
 _atom_type_symbol
 _atom_type_oxidation_number
  Li+  1.0
  Ge4+  4.0
  Sb5+  5.0
  S2-  -2.0
loop_
 _atom_site_type_symbol
 _atom_site_label
 _atom_site_symmetry_multiplicity
 _atom_site_fract_x
 _atom_site_fract_y
 _atom_site_fract_z
 _atom_site_occupancy
  Li+  Li0  1  0.50700000  0.49766667  0.03840000  1.0
  Li+  Li1  1  0.50700000  0.99766667  0.46160000  1.0
  Li+  Li2  1  0.00700000  0.83566667  0.76160000  1.0
  Li+  Li3  1  0.00700000  0.33566667  0.73840000  1.0
  Li+  Li4  1  0.02400000  0.66186667  0.09580000  1.0
  Li+  Li5  1  0.02400000  0.66186667  0.29580000  1.0
  Li+  Li6  1  0.97600000  0.67146667  0.10420000  1.0
  Li+  Li7  1  0.97600000  0.67146667  0.50420000  1.0
  Li+  Li8  1  0.97600000  0.67146667  0.70420000  1.0
  Li+  Li9  1  0.97600000  0.67146667  0.90420000  1.0
  Li+  Li10  1  0.97600000  0.17146667  0.39580000  1.0
  Li+  Li11  1  0.97600000  0.17146667  0.59580000  1.0
  Li+  Li12  1  0.97600000  0.17146667  0.79580000  1.0
  Li+  Li13  1  0.97600000  0.17146667  0.99580000  1.0
  Li+  Li14  1  0.02400000  0.16186667  0.20420000  1.0
  Li+  Li15  1  0.02400000  0.16186667  0.80420000  1.0
  Li+  Li16  1  0.52400000  0.67146667  0.30420000  1.0
  Li+  Li17  1  0.47600000  0.66186667  0.09580000  1.0
  Li+  Li18  1  0.47600000  0.66186667  0.69580000  1.0
  Li+  Li19  1  0.47600000  0.16186667  0.40420000  1.0
  Li+  Li20  1  0.47600000  0.16186667  0.60420000  1.0
  Li+  Li21  1  0.47600000  0.16186667  0.80420000  1.0
  Li+  Li22  1  0.52400000  0.17146667  0.19580000  1.0
  Li+  Li23  1  0.52400000  0.17146667  0.99580000  1.0
  Li+  Li24  1  0.99990000  0.49026667  0.06264000  1.0
  Li+  Li25  1  0.99990000  0.49026667  0.26264000  1.0
  Li+  Li26  1  0.99990000  0.49026667  0.46264000  1.0
  Li+  Li27  1  0.99990000  0.49026667  0.66264000  1.0
  Li+  Li28  1  0.99990000  0.49026667  0.86264000  1.0
  Li+  Li29  1  0.00010000  0.84306667  0.13736000  1.0
  Li+  Li30  1  0.00010000  0.84306667  0.33736000  1.0
  Li+  Li31  1  0.00010000  0.84306667  0.53736000  1.0
  Li+  Li32  1  0.00010000  0.84306667  0.73736000  1.0
  Li+  Li33  1  0.00010000  0.84306667  0.93736000  1.0
  Li+  Li34  1  0.00010000  0.34306667  0.16264000  1.0
  Li+  Li35  1  0.00010000  0.34306667  0.36264000  1.0
  Li+  Li36  1  0.00010000  0.34306667  0.56264000  1.0
  Li+  Li37  1  0.00010000  0.34306667  0.76264000  1.0
  Li+  Li38  1  0.00010000  0.34306667  0.96264000  1.0
  Li+  Li39  1  0.99990000  0.99026667  0.03736000  1.0
  Li+  Li40  1  0.99990000  0.99026667  0.23736000  1.0
  Li+  Li41  1  0.99990000  0.99026667  0.43736000  1.0
  Li+  Li42  1  0.99990000  0.99026667  0.63736000  1.0
  Li+  Li43  1  0.99990000  0.99026667  0.83736000  1.0
  Li+  Li44  1  0.49990000  0.84306667  0.13736000  1.0
  Li+  Li45  1  0.49990000  0.84306667  0.33736000  1.0
  Li+  Li46  1  0.49990000  0.84306667  0.53736000  1.0
  Li+  Li47  1  0.49990000  0.84306667  0.73736000  1.0
  Li+  Li48  1  0.49990000  0.84306667  0.93736000  1.0
  Li+  Li49  1  0.50010000  0.49026667  0.06264000  1.0
  Li+  Li50  1  0.50010000  0.49026667  0.26264000  1.0
  Li+  Li51  1  0.50010000  0.49026667  0.46264000  1.0
  Li+  Li52  1  0.50010000  0.49026667  0.66264000  1.0
  Li+  Li53  1  0.50010000  0.49026667  0.86264000  1.0
  Li+  Li54  1  0.50010000  0.99026667  0.03736000  1.0
  Li+  Li55  1  0.50010000  0.99026667  0.43736000  1.0
  Li+  Li56  1  0.50010000  0.99026667  0.63736000  1.0
  Li+  Li57  1  0.50010000  0.99026667  0.83736000  1.0
  Li+  Li58  1  0.49990000  0.34306667  0.16264000  1.0
  Li+  Li59  1  0.49990000  0.34306667  0.36264000  1.0
  Li+  Li60  1  0.49990000  0.34306667  0.56264000  1.0
  Li+  Li61  1  0.49990000  0.34306667  0.76264000  1.0
  Li+  Li62  1  0.49990000  0.34306667  0.96264000  1.0
  Li+  Li63  1  0.25000000  0.25466667  0.07398000  1.0
  Li+  Li64  1  0.25000000  0.25466667  0.27398000  1.0
  Li+  Li65  1  0.25000000  0.25466667  0.47398000  1.0
  Li+  Li66  1  0.75000000  0.07866667  0.12602000  1.0
  Li+  Li67  1  0.75000000  0.07866667  0.32602000  1.0
  Li+  Li68  1  0.75000000  0.07866667  0.52602000  1.0
  Li+  Li69  1  0.75000000  0.07866667  0.72602000  1.0
  Li+  Li70  1  0.75000000  0.57866667  0.17398000  1.0
  Li+  Li71  1  0.75000000  0.57866667  0.37398000  1.0
  Li+  Li72  1  0.75000000  0.57866667  0.57398000  1.0
  Li+  Li73  1  0.75000000  0.57866667  0.77398000  1.0
  Li+  Li74  1  0.75000000  0.57866667  0.97398000  1.0
  Li+  Li75  1  0.25000000  0.75466667  0.02602000  1.0
  Li+  Li76  1  0.25000000  0.75466667  0.22602000  1.0
  Li+  Li77  1  0.25000000  0.75466667  0.62602000  1.0
  Li+  Li78  1  0.25000000  0.75466667  0.82602000  1.0
  Ge4+  Ge79  1  0.75000000  0.25560667  0.07032800  1.0
  Ge4+  Ge80  1  0.75000000  0.25560667  0.27032800  1.0
  Ge4+  Ge81  1  0.75000000  0.25560667  0.47032800  1.0
  Ge4+  Ge82  1  0.75000000  0.25560667  0.67032800  1.0
  Ge4+  Ge83  1  0.75000000  0.25560667  0.87032800  1.0
  Ge4+  Ge84  1  0.25000000  0.07772667  0.12967200  1.0
  Ge4+  Ge85  1  0.25000000  0.07772667  0.32967200  1.0
  Ge4+  Ge86  1  0.25000000  0.07772667  0.52967200  1.0
  Ge4+  Ge87  1  0.25000000  0.07772667  0.72967200  1.0
  Ge4+  Ge88  1  0.25000000  0.07772667  0.92967200  1.0
  Ge4+  Ge89  1  0.25000000  0.57772667  0.17032800  1.0
  Ge4+  Ge90  1  0.25000000  0.57772667  0.37032800  1.0
  Ge4+  Ge91  1  0.25000000  0.57772667  0.57032800  1.0
  Ge4+  Ge92  1  0.25000000  0.57772667  0.77032800  1.0
  Ge4+  Ge93  1  0.25000000  0.57772667  0.97032800  1.0
  Ge4+  Ge94  1  0.75000000  0.75560667  0.22967200  1.0
  Ge4+  Ge95  1  0.75000000  0.75560667  0.42967200  1.0
  Ge4+  Ge96  1  0.75000000  0.75560667  0.62967200  1.0
  Ge4+  Ge97  1  0.75000000  0.75560667  0.82967200  1.0
  Sb5+  Sb98  1  0.75000000  0.75560667  0.02967200  1.0
  S2-  S99  1  0.98470000  0.32361667  0.04434000  1.0
  S2-  S100  1  0.98470000  0.32361667  0.24434000  1.0
  S2-  S101  1  0.98470000  0.32361667  0.44434000  1.0
  S2-  S102  1  0.98470000  0.32361667  0.64434000  1.0
  S2-  S103  1  0.98470000  0.32361667  0.84434000  1.0
  S2-  S104  1  0.01530000  0.00971667  0.15566000  1.0
  S2-  S105  1  0.01530000  0.00971667  0.35566000  1.0
  S2-  S106  1  0.01530000  0.00971667  0.55566000  1.0
  S2-  S107  1  0.01530000  0.00971667  0.75566000  1.0
  S2-  S108  1  0.01530000  0.00971667  0.95566000  1.0
  S2-  S109  1  0.01530000  0.50971667  0.14434000  1.0
  S2-  S110  1  0.01530000  0.50971667  0.34434000  1.0
  S2-  S111  1  0.01530000  0.50971667  0.54434000  1.0
  S2-  S112  1  0.01530000  0.50971667  0.74434000  1.0
  S2-  S113  1  0.01530000  0.50971667  0.94434000  1.0
  S2-  S114  1  0.98470000  0.82361667  0.05566000  1.0
  S2-  S115  1  0.98470000  0.82361667  0.25566000  1.0
  S2-  S116  1  0.98470000  0.82361667  0.45566000  1.0
  S2-  S117  1  0.98470000  0.82361667  0.65566000  1.0
  S2-  S118  1  0.98470000  0.82361667  0.85566000  1.0
  S2-  S119  1  0.48470000  0.00971667  0.15566000  1.0
  S2-  S120  1  0.48470000  0.00971667  0.35566000  1.0
  S2-  S121  1  0.48470000  0.00971667  0.55566000  1.0
  S2-  S122  1  0.48470000  0.00971667  0.75566000  1.0
  S2-  S123  1  0.48470000  0.00971667  0.95566000  1.0
  S2-  S124  1  0.51530000  0.32361667  0.04434000  1.0
  S2-  S125  1  0.51530000  0.32361667  0.24434000  1.0
  S2-  S126  1  0.51530000  0.32361667  0.44434000  1.0
  S2-  S127  1  0.51530000  0.32361667  0.64434000  1.0
  S2-  S128  1  0.51530000  0.32361667  0.84434000  1.0
  S2-  S129  1  0.51530000  0.82361667  0.05566000  1.0
  S2-  S130  1  0.51530000  0.82361667  0.25566000  1.0
  S2-  S131  1  0.51530000  0.82361667  0.45566000  1.0
  S2-  S132  1  0.51530000  0.82361667  0.65566000  1.0
  S2-  S133  1  0.51530000  0.82361667  0.85566000  1.0
  S2-  S134  1  0.48470000  0.50971667  0.14434000  1.0
  S2-  S135  1  0.48470000  0.50971667  0.34434000  1.0
  S2-  S136  1  0.48470000  0.50971667  0.54434000  1.0
  S2-  S137  1  0.48470000  0.50971667  0.74434000  1.0
  S2-  S138  1  0.48470000  0.50971667  0.94434000  1.0
  S2-  S139  1  0.25000000  0.57976667  0.04176000  1.0
  S2-  S140  1  0.25000000  0.57976667  0.24176000  1.0
  S2-  S141  1  0.25000000  0.57976667  0.44176000  1.0
  S2-  S142  1  0.25000000  0.57976667  0.64176000  1.0
  S2-  S143  1  0.25000000  0.57976667  0.84176000  1.0
  S2-  S144  1  0.75000000  0.75356667  0.15824000  1.0
  S2-  S145  1  0.75000000  0.75356667  0.35824000  1.0
  S2-  S146  1  0.75000000  0.75356667  0.55824000  1.0
  S2-  S147  1  0.75000000  0.75356667  0.75824000  1.0
  S2-  S148  1  0.75000000  0.75356667  0.95824000  1.0
  S2-  S149  1  0.75000000  0.25356667  0.14176000  1.0
  S2-  S150  1  0.75000000  0.25356667  0.34176000  1.0
  S2-  S151  1  0.75000000  0.25356667  0.54176000  1.0
  S2-  S152  1  0.75000000  0.25356667  0.74176000  1.0
  S2-  S153  1  0.75000000  0.25356667  0.94176000  1.0
  S2-  S154  1  0.25000000  0.07976667  0.05824000  1.0
  S2-  S155  1  0.25000000  0.07976667  0.25824000  1.0
  S2-  S156  1  0.25000000  0.07976667  0.45824000  1.0
  S2-  S157  1  0.25000000  0.07976667  0.65824000  1.0
  S2-  S158  1  0.25000000  0.07976667  0.85824000  1.0
  S2-  S159  1  0.75000000  0.60516667  0.05352000  1.0
  S2-  S160  1  0.75000000  0.60516667  0.25352000  1.0
  S2-  S161  1  0.75000000  0.60516667  0.45352000  1.0
  S2-  S162  1  0.75000000  0.60516667  0.65352000  1.0
  S2-  S163  1  0.75000000  0.60516667  0.85352000  1.0
  S2-  S164  1  0.25000000  0.72816667  0.14648000  1.0
  S2-  S165  1  0.25000000  0.72816667  0.34648000  1.0
  S2-  S166  1  0.25000000  0.72816667  0.54648000  1.0
  S2-  S167  1  0.25000000  0.72816667  0.74648000  1.0
  S2-  S168  1  0.25000000  0.72816667  0.94648000  1.0
  S2-  S169  1  0.25000000  0.22816667  0.15352000  1.0
  S2-  S170  1  0.25000000  0.22816667  0.35352000  1.0
  S2-  S171  1  0.25000000  0.22816667  0.55352000  1.0
  S2-  S172  1  0.25000000  0.22816667  0.75352000  1.0
  S2-  S173  1  0.25000000  0.22816667  0.95352000  1.0
  S2-  S174  1  0.75000000  0.10516667  0.04648000  1.0
  S2-  S175  1  0.75000000  0.10516667  0.24648000  1.0
  S2-  S176  1  0.75000000  0.10516667  0.44648000  1.0
  S2-  S177  1  0.75000000  0.10516667  0.64648000  1.0
  S2-  S178  1  0.75000000  0.10516667  0.84648000  1.0
