# generated using pymatgen
data_Li79Ge19SbS80
_symmetry_space_group_name_H-M   'P 1'
_cell_length_a   14.05060000
_cell_length_b   7.76498000
_cell_length_c   30.79610000
_cell_angle_alpha   90.00000000
_cell_angle_beta   90.00000000
_cell_angle_gamma   90.00000000
_symmetry_Int_Tables_number   1
_chemical_formula_structural   Li79Ge19SbS80
_chemical_formula_sum   'Li79 Ge19 Sb1 S80'
_cell_volume   3359.93544178
_cell_formula_units_Z   1
loop_
 _symmetry_equiv_pos_site_id
 _symmetry_equiv_pos_as_xyz
  1  'x, y, z'
loop_
 _atom_type_symbol
 _atom_type_oxidation_number
  Li+  1.0
  Ge4+  4.0
  Sb5+  5.0
  S2-  -2.0
loop_
 _atom_site_type_symbol
 _atom_site_label
 _atom_site_symmetry_multiplicity
 _atom_site_fract_x
 _atom_site_fract_y
 _atom_site_fract_z
 _atom_site_occupancy
  Li+  Li0  1  0.16900000  0.49300000  0.03840000  1.0
  Li+  Li1  1  0.66900000  0.49300000  0.46160000  1.0
  Li+  Li2  1  0.83100000  0.99300000  0.76160000  1.0
  Li+  Li3  1  0.33100000  0.99300000  0.73840000  1.0
  Li+  Li4  1  0.00480000  0.97600000  0.09580000  1.0
  Li+  Li5  1  0.00480000  0.97600000  0.29580000  1.0
  Li+  Li6  1  0.99520000  0.02400000  0.10420000  1.0
  Li+  Li7  1  0.99520000  0.02400000  0.50420000  1.0
  Li+  Li8  1  0.99520000  0.02400000  0.70420000  1.0
  Li+  Li9  1  0.99520000  0.02400000  0.90420000  1.0
  Li+  Li10  1  0.49520000  0.02400000  0.39580000  1.0
  Li+  Li11  1  0.49520000  0.02400000  0.59580000  1.0
  Li+  Li12  1  0.49520000  0.02400000  0.79580000  1.0
  Li+  Li13  1  0.49520000  0.02400000  0.99580000  1.0
  Li+  Li14  1  0.50480000  0.97600000  0.20420000  1.0
  Li+  Li15  1  0.50480000  0.97600000  0.80420000  1.0
  Li+  Li16  1  0.99520000  0.47600000  0.30420000  1.0
  Li+  Li17  1  0.00480000  0.52400000  0.09580000  1.0
  Li+  Li18  1  0.00480000  0.52400000  0.69580000  1.0
  Li+  Li19  1  0.50480000  0.52400000  0.40420000  1.0
  Li+  Li20  1  0.50480000  0.52400000  0.60420000  1.0
  Li+  Li21  1  0.50480000  0.52400000  0.80420000  1.0
  Li+  Li22  1  0.49520000  0.47600000  0.19580000  1.0
  Li+  Li23  1  0.49520000  0.47600000  0.99580000  1.0
  Li+  Li24  1  0.17640000  0.00010000  0.06264000  1.0
  Li+  Li25  1  0.17640000  0.00010000  0.26264000  1.0
  Li+  Li26  1  0.17640000  0.00010000  0.46264000  1.0
  Li+  Li27  1  0.17640000  0.00010000  0.66264000  1.0
  Li+  Li28  1  0.17640000  0.00010000  0.86264000  1.0
  Li+  Li29  1  0.82360000  0.99990000  0.13736000  1.0
  Li+  Li30  1  0.82360000  0.99990000  0.33736000  1.0
  Li+  Li31  1  0.82360000  0.99990000  0.53736000  1.0
  Li+  Li32  1  0.82360000  0.99990000  0.73736000  1.0
  Li+  Li33  1  0.82360000  0.99990000  0.93736000  1.0
  Li+  Li34  1  0.32360000  0.99990000  0.16264000  1.0
  Li+  Li35  1  0.32360000  0.99990000  0.36264000  1.0
  Li+  Li36  1  0.32360000  0.99990000  0.56264000  1.0
  Li+  Li37  1  0.32360000  0.99990000  0.76264000  1.0
  Li+  Li38  1  0.32360000  0.99990000  0.96264000  1.0
  Li+  Li39  1  0.67640000  0.00010000  0.03736000  1.0
  Li+  Li40  1  0.67640000  0.00010000  0.23736000  1.0
  Li+  Li41  1  0.67640000  0.00010000  0.43736000  1.0
  Li+  Li42  1  0.67640000  0.00010000  0.63736000  1.0
  Li+  Li43  1  0.67640000  0.00010000  0.83736000  1.0
  Li+  Li44  1  0.82360000  0.50010000  0.13736000  1.0
  Li+  Li45  1  0.82360000  0.50010000  0.33736000  1.0
  Li+  Li46  1  0.82360000  0.50010000  0.53736000  1.0
  Li+  Li47  1  0.82360000  0.50010000  0.73736000  1.0
  Li+  Li48  1  0.82360000  0.50010000  0.93736000  1.0
  Li+  Li49  1  0.17640000  0.49990000  0.06264000  1.0
  Li+  Li50  1  0.17640000  0.49990000  0.26264000  1.0
  Li+  Li51  1  0.17640000  0.49990000  0.46264000  1.0
  Li+  Li52  1  0.17640000  0.49990000  0.66264000  1.0
  Li+  Li53  1  0.17640000  0.49990000  0.86264000  1.0
  Li+  Li54  1  0.67640000  0.49990000  0.03736000  1.0
  Li+  Li55  1  0.67640000  0.49990000  0.43736000  1.0
  Li+  Li56  1  0.67640000  0.49990000  0.63736000  1.0
  Li+  Li57  1  0.67640000  0.49990000  0.83736000  1.0
  Li+  Li58  1  0.32360000  0.50010000  0.16264000  1.0
  Li+  Li59  1  0.32360000  0.50010000  0.36264000  1.0
  Li+  Li60  1  0.32360000  0.50010000  0.56264000  1.0
  Li+  Li61  1  0.32360000  0.50010000  0.76264000  1.0
  Li+  Li62  1  0.32360000  0.50010000  0.96264000  1.0
  Li+  Li63  1  0.41200000  0.75000000  0.07398000  1.0
  Li+  Li64  1  0.41200000  0.75000000  0.27398000  1.0
  Li+  Li65  1  0.41200000  0.75000000  0.47398000  1.0
  Li+  Li66  1  0.58800000  0.25000000  0.12602000  1.0
  Li+  Li67  1  0.58800000  0.25000000  0.32602000  1.0
  Li+  Li68  1  0.58800000  0.25000000  0.52602000  1.0
  Li+  Li69  1  0.58800000  0.25000000  0.72602000  1.0
  Li+  Li70  1  0.08800000  0.25000000  0.17398000  1.0
  Li+  Li71  1  0.08800000  0.25000000  0.37398000  1.0
  Li+  Li72  1  0.08800000  0.25000000  0.57398000  1.0
  Li+  Li73  1  0.08800000  0.25000000  0.77398000  1.0
  Li+  Li74  1  0.08800000  0.25000000  0.97398000  1.0
  Li+  Li75  1  0.91200000  0.75000000  0.02602000  1.0
  Li+  Li76  1  0.91200000  0.75000000  0.22602000  1.0
  Li+  Li77  1  0.91200000  0.75000000  0.62602000  1.0
  Li+  Li78  1  0.91200000  0.75000000  0.82602000  1.0
  Ge4+  Ge79  1  0.41106000  0.25000000  0.07032800  1.0
  Ge4+  Ge80  1  0.41106000  0.25000000  0.27032800  1.0
  Ge4+  Ge81  1  0.41106000  0.25000000  0.47032800  1.0
  Ge4+  Ge82  1  0.41106000  0.25000000  0.67032800  1.0
  Ge4+  Ge83  1  0.41106000  0.25000000  0.87032800  1.0
  Ge4+  Ge84  1  0.58894000  0.75000000  0.12967200  1.0
  Ge4+  Ge85  1  0.58894000  0.75000000  0.32967200  1.0
  Ge4+  Ge86  1  0.58894000  0.75000000  0.52967200  1.0
  Ge4+  Ge87  1  0.58894000  0.75000000  0.72967200  1.0
  Ge4+  Ge88  1  0.58894000  0.75000000  0.92967200  1.0
  Ge4+  Ge89  1  0.08894000  0.75000000  0.17032800  1.0
  Ge4+  Ge90  1  0.08894000  0.75000000  0.37032800  1.0
  Ge4+  Ge91  1  0.08894000  0.75000000  0.57032800  1.0
  Ge4+  Ge92  1  0.08894000  0.75000000  0.77032800  1.0
  Ge4+  Ge93  1  0.08894000  0.75000000  0.97032800  1.0
  Ge4+  Ge94  1  0.91106000  0.25000000  0.22967200  1.0
  Ge4+  Ge95  1  0.91106000  0.25000000  0.42967200  1.0
  Ge4+  Ge96  1  0.91106000  0.25000000  0.62967200  1.0
  Ge4+  Ge97  1  0.91106000  0.25000000  0.82967200  1.0
  Sb5+  Sb98  1  0.91106000  0.25000000  0.02967200  1.0
  S2-  S1  1  0.34305000  0.01530000  0.04434000  1.0
  S2-  S1  1  0.34305000  0.01530000  0.24434000  1.0
  S2-  S1  1  0.34305000  0.01530000  0.44434000  1.0
  S2-  S1  1  0.34305000  0.01530000  0.64434000  1.0
  S2-  S1  1  0.34305000  0.01530000  0.84434000  1.0
  S2-  S1  1  0.65695000  0.98470000  0.15566000  1.0
  S2-  S1  1  0.65695000  0.98470000  0.35566000  1.0
  S2-  S1  1  0.65695000  0.98470000  0.55566000  1.0
  S2-  S1  1  0.65695000  0.98470000  0.75566000  1.0
  S2-  S1  1  0.65695000  0.98470000  0.95566000  1.0
  S2-  S1  1  0.15695000  0.98470000  0.14434000  1.0
  S2-  S1  1  0.15695000  0.98470000  0.34434000  1.0
  S2-  S1  1  0.15695000  0.98470000  0.54434000  1.0
  S2-  S1  1  0.15695000  0.98470000  0.74434000  1.0
  S2-  S1  1  0.15695000  0.98470000  0.94434000  1.0
  S2-  S1  1  0.84305000  0.01530000  0.05566000  1.0
  S2-  S1  1  0.84305000  0.01530000  0.25566000  1.0
  S2-  S1  1  0.84305000  0.01530000  0.45566000  1.0
  S2-  S1  1  0.84305000  0.01530000  0.65566000  1.0
  S2-  S1  1  0.84305000  0.01530000  0.85566000  1.0
  S2-  S1  1  0.65695000  0.51530000  0.15566000  1.0
  S2-  S1  1  0.65695000  0.51530000  0.35566000  1.0
  S2-  S1  1  0.65695000  0.51530000  0.55566000  1.0
  S2-  S1  1  0.65695000  0.51530000  0.75566000  1.0
  S2-  S1  1  0.65695000  0.51530000  0.95566000  1.0
  S2-  S1  1  0.34305000  0.48470000  0.04434000  1.0
  S2-  S1  1  0.34305000  0.48470000  0.24434000  1.0
  S2-  S1  1  0.34305000  0.48470000  0.44434000  1.0
  S2-  S1  1  0.34305000  0.48470000  0.64434000  1.0
  S2-  S1  1  0.34305000  0.48470000  0.84434000  1.0
  S2-  S1  1  0.84305000  0.48470000  0.05566000  1.0
  S2-  S1  1  0.84305000  0.48470000  0.25566000  1.0
  S2-  S1  1  0.84305000  0.48470000  0.45566000  1.0
  S2-  S1  1  0.84305000  0.48470000  0.65566000  1.0
  S2-  S1  1  0.84305000  0.48470000  0.85566000  1.0
  S2-  S1  1  0.15695000  0.51530000  0.14434000  1.0
  S2-  S1  1  0.15695000  0.51530000  0.34434000  1.0
  S2-  S1  1  0.15695000  0.51530000  0.54434000  1.0
  S2-  S1  1  0.15695000  0.51530000  0.74434000  1.0
  S2-  S1  1  0.15695000  0.51530000  0.94434000  1.0
  S2-  S2  1  0.08690000  0.75000000  0.04176000  1.0
  S2-  S2  1  0.08690000  0.75000000  0.24176000  1.0
  S2-  S2  1  0.08690000  0.75000000  0.44176000  1.0
  S2-  S2  1  0.08690000  0.75000000  0.64176000  1.0
  S2-  S2  1  0.08690000  0.75000000  0.84176000  1.0
  S2-  S2  1  0.91310000  0.25000000  0.15824000  1.0
  S2-  S2  1  0.91310000  0.25000000  0.35824000  1.0
  S2-  S2  1  0.91310000  0.25000000  0.55824000  1.0
  S2-  S2  1  0.91310000  0.25000000  0.75824000  1.0
  S2-  S2  1  0.91310000  0.25000000  0.95824000  1.0
  S2-  S2  1  0.41310000  0.25000000  0.14176000  1.0
  S2-  S2  1  0.41310000  0.25000000  0.34176000  1.0
  S2-  S2  1  0.41310000  0.25000000  0.54176000  1.0
  S2-  S2  1  0.41310000  0.25000000  0.74176000  1.0
  S2-  S2  1  0.41310000  0.25000000  0.94176000  1.0
  S2-  S2  1  0.58690000  0.75000000  0.05824000  1.0
  S2-  S2  1  0.58690000  0.75000000  0.25824000  1.0
  S2-  S2  1  0.58690000  0.75000000  0.45824000  1.0
  S2-  S2  1  0.58690000  0.75000000  0.65824000  1.0
  S2-  S2  1  0.58690000  0.75000000  0.85824000  1.0
  S2-  S3  1  0.06150000  0.25000000  0.05352000  1.0
  S2-  S3  1  0.06150000  0.25000000  0.25352000  1.0
  S2-  S3  1  0.06150000  0.25000000  0.45352000  1.0
  S2-  S3  1  0.06150000  0.25000000  0.65352000  1.0
  S2-  S3  1  0.06150000  0.25000000  0.85352000  1.0
  S2-  S3  1  0.93850000  0.75000000  0.14648000  1.0
  S2-  S3  1  0.93850000  0.75000000  0.34648000  1.0
  S2-  S3  1  0.93850000  0.75000000  0.54648000  1.0
  S2-  S3  1  0.93850000  0.75000000  0.74648000  1.0
  S2-  S3  1  0.93850000  0.75000000  0.94648000  1.0
  S2-  S3  1  0.43850000  0.75000000  0.15352000  1.0
  S2-  S3  1  0.43850000  0.75000000  0.35352000  1.0
  S2-  S3  1  0.43850000  0.75000000  0.55352000  1.0
  S2-  S3  1  0.43850000  0.75000000  0.75352000  1.0
  S2-  S3  1  0.43850000  0.75000000  0.95352000  1.0
  S2-  S3  1  0.56150000  0.25000000  0.04648000  1.0
  S2-  S3  1  0.56150000  0.25000000  0.24648000  1.0
  S2-  S3  1  0.56150000  0.25000000  0.44648000  1.0
  S2-  S3  1  0.56150000  0.25000000  0.64648000  1.0
  S2-  S3  1  0.56150000  0.25000000  0.84648000  1.0
