# generated using pymatgen
data_NaLi2B(PO4)2
_symmetry_space_group_name_H-M   'P 1'
_cell_length_a   10.86880000
_cell_length_b   22.13790000
_cell_length_c   7.98400000
_cell_angle_alpha   76.75700000
_cell_angle_beta   70.73000000
_cell_angle_gamma   87.39100000
_symmetry_Int_Tables_number   1
_chemical_formula_structural   NaLi2B(PO4)2
_chemical_formula_sum   'Na12 Li24 B12 P24 O96'
_cell_volume   1764.25050319
_cell_formula_units_Z   12
loop_
 _symmetry_equiv_pos_site_id
 _symmetry_equiv_pos_as_xyz
  1  'x, y, z'
loop_
 _atom_type_symbol
 _atom_type_oxidation_number
  Na+  1.0
  Li+  1.0
  B3+  3.0
  P5+  5.0
  O2-  -2.0
loop_
 _atom_site_type_symbol
 _atom_site_label
 _atom_site_symmetry_multiplicity
 _atom_site_fract_x
 _atom_site_fract_y
 _atom_site_fract_z
 _atom_site_occupancy
  Na+  Na1  1  0.37335500  0.03973333  0.74174000  1.0
  Na+  Na1  1  0.37335500  0.37306667  0.74174000  1.0
  Na+  Na1  1  0.37335500  0.70640000  0.74174000  1.0
  Na+  Na1  1  0.87335500  0.03973333  0.74174000  1.0
  Na+  Na1  1  0.87335500  0.37306667  0.74174000  1.0
  Na+  Na1  1  0.87335500  0.70640000  0.74174000  1.0
  Na+  Na1  1  0.12664500  0.29360000  0.25826000  1.0
  Na+  Na1  1  0.12664500  0.62693333  0.25826000  1.0
  Na+  Na1  1  0.12664500  0.96026667  0.25826000  1.0
  Na+  Na1  1  0.62664500  0.29360000  0.25826000  1.0
  Na+  Na1  1  0.62664500  0.62693333  0.25826000  1.0
  Na+  Na1  1  0.62664500  0.96026667  0.25826000  1.0
  Li+  Li1  1  0.34500000  0.16590000  0.85820000  1.0
  Li+  Li1  1  0.34500000  0.49923333  0.85820000  1.0
  Li+  Li1  1  0.34500000  0.83256667  0.85820000  1.0
  Li+  Li1  1  0.84500000  0.16590000  0.85820000  1.0
  Li+  Li1  1  0.84500000  0.49923333  0.85820000  1.0
  Li+  Li1  1  0.84500000  0.83256667  0.85820000  1.0
  Li+  Li1  1  0.15500000  0.16743333  0.14180000  1.0
  Li+  Li1  1  0.15500000  0.50076667  0.14180000  1.0
  Li+  Li1  1  0.15500000  0.83410000  0.14180000  1.0
  Li+  Li1  1  0.65500000  0.16743333  0.14180000  1.0
  Li+  Li1  1  0.65500000  0.50076667  0.14180000  1.0
  Li+  Li1  1  0.65500000  0.83410000  0.14180000  1.0
  Li+  Li2  1  0.07275000  0.17743333  0.59800000  1.0
  Li+  Li2  1  0.07275000  0.51076667  0.59800000  1.0
  Li+  Li2  1  0.07275000  0.84410000  0.59800000  1.0
  Li+  Li2  1  0.57275000  0.17743333  0.59800000  1.0
  Li+  Li2  1  0.57275000  0.51076667  0.59800000  1.0
  Li+  Li2  1  0.57275000  0.84410000  0.59800000  1.0
  Li+  Li2  1  0.42725000  0.15590000  0.40200000  1.0
  Li+  Li2  1  0.42725000  0.48923333  0.40200000  1.0
  Li+  Li2  1  0.42725000  0.82256667  0.40200000  1.0
  Li+  Li2  1  0.92725000  0.15590000  0.40200000  1.0
  Li+  Li2  1  0.92725000  0.48923333  0.40200000  1.0
  Li+  Li2  1  0.92725000  0.82256667  0.40200000  1.0
  B3+  B1  1  0.12525000  0.31753333  0.76600000  1.0
  B3+  B1  1  0.12525000  0.65086667  0.76600000  1.0
  B3+  B1  1  0.12525000  0.98420000  0.76600000  1.0
  B3+  B1  1  0.62525000  0.31753333  0.76600000  1.0
  B3+  B1  1  0.62525000  0.65086667  0.76600000  1.0
  B3+  B1  1  0.62525000  0.98420000  0.76600000  1.0
  B3+  B1  1  0.37475000  0.01580000  0.23400000  1.0
  B3+  B1  1  0.37475000  0.34913333  0.23400000  1.0
  B3+  B1  1  0.37475000  0.68246667  0.23400000  1.0
  B3+  B1  1  0.87475000  0.01580000  0.23400000  1.0
  B3+  B1  1  0.87475000  0.34913333  0.23400000  1.0
  B3+  B1  1  0.87475000  0.68246667  0.23400000  1.0
  P5+  P1  1  0.18843000  0.07555667  0.45825000  1.0
  P5+  P1  1  0.18843000  0.40889000  0.45825000  1.0
  P5+  P1  1  0.18843000  0.74222333  0.45825000  1.0
  P5+  P1  1  0.68843000  0.07555667  0.45825000  1.0
  P5+  P1  1  0.68843000  0.40889000  0.45825000  1.0
  P5+  P1  1  0.68843000  0.74222333  0.45825000  1.0
  P5+  P1  1  0.31157000  0.25777667  0.54175000  1.0
  P5+  P1  1  0.31157000  0.59111000  0.54175000  1.0
  P5+  P1  1  0.31157000  0.92444333  0.54175000  1.0
  P5+  P1  1  0.81157000  0.25777667  0.54175000  1.0
  P5+  P1  1  0.81157000  0.59111000  0.54175000  1.0
  P5+  P1  1  0.81157000  0.92444333  0.54175000  1.0
  P5+  P2  1  0.07304000  0.08296333  0.94588000  1.0
  P5+  P2  1  0.07304000  0.41629667  0.94588000  1.0
  P5+  P2  1  0.07304000  0.74963000  0.94588000  1.0
  P5+  P2  1  0.57304000  0.08296333  0.94588000  1.0
  P5+  P2  1  0.57304000  0.41629667  0.94588000  1.0
  P5+  P2  1  0.57304000  0.74963000  0.94588000  1.0
  P5+  P2  1  0.42696000  0.25037000  0.05412000  1.0
  P5+  P2  1  0.42696000  0.58370333  0.05412000  1.0
  P5+  P2  1  0.42696000  0.91703667  0.05412000  1.0
  P5+  P2  1  0.92696000  0.25037000  0.05412000  1.0
  P5+  P2  1  0.92696000  0.58370333  0.05412000  1.0
  P5+  P2  1  0.92696000  0.91703667  0.05412000  1.0
  O2-  O1  1  0.01560000  0.27279000  0.85080000  1.0
  O2-  O1  1  0.01560000  0.60612333  0.85080000  1.0
  O2-  O1  1  0.01560000  0.93945667  0.85080000  1.0
  O2-  O1  1  0.51560000  0.27279000  0.85080000  1.0
  O2-  O1  1  0.51560000  0.60612333  0.85080000  1.0
  O2-  O1  1  0.51560000  0.93945667  0.85080000  1.0
  O2-  O1  1  0.48440000  0.06054333  0.14920000  1.0
  O2-  O1  1  0.48440000  0.39387667  0.14920000  1.0
  O2-  O1  1  0.48440000  0.72721000  0.14920000  1.0
  O2-  O1  1  0.98440000  0.06054333  0.14920000  1.0
  O2-  O1  1  0.98440000  0.39387667  0.14920000  1.0
  O2-  O1  1  0.98440000  0.72721000  0.14920000  1.0
  O2-  O2  1  0.24920000  0.04650667  0.28228000  1.0
  O2-  O2  1  0.24920000  0.37984000  0.28228000  1.0
  O2-  O2  1  0.24920000  0.71317333  0.28228000  1.0
  O2-  O2  1  0.74920000  0.04650667  0.28228000  1.0
  O2-  O2  1  0.74920000  0.37984000  0.28228000  1.0
  O2-  O2  1  0.74920000  0.71317333  0.28228000  1.0
  O2-  O2  1  0.25080000  0.28682667  0.71772000  1.0
  O2-  O2  1  0.25080000  0.62016000  0.71772000  1.0
  O2-  O2  1  0.25080000  0.95349333  0.71772000  1.0
  O2-  O2  1  0.75080000  0.28682667  0.71772000  1.0
  O2-  O2  1  0.75080000  0.62016000  0.71772000  1.0
  O2-  O2  1  0.75080000  0.95349333  0.71772000  1.0
  O2-  O3  1  0.49380000  0.11132333  0.82586000  1.0
  O2-  O3  1  0.49380000  0.44465667  0.82586000  1.0
  O2-  O3  1  0.49380000  0.77799000  0.82586000  1.0
  O2-  O3  1  0.99380000  0.11132333  0.82586000  1.0
  O2-  O3  1  0.99380000  0.44465667  0.82586000  1.0
  O2-  O3  1  0.99380000  0.77799000  0.82586000  1.0
  O2-  O3  1  0.00620000  0.22201000  0.17414000  1.0
  O2-  O3  1  0.00620000  0.55534333  0.17414000  1.0
  O2-  O3  1  0.00620000  0.88867667  0.17414000  1.0
  O2-  O3  1  0.50620000  0.22201000  0.17414000  1.0
  O2-  O3  1  0.50620000  0.55534333  0.17414000  1.0
  O2-  O3  1  0.50620000  0.88867667  0.17414000  1.0
  O2-  O4  1  0.09925000  0.12569000  0.40374000  1.0
  O2-  O4  1  0.09925000  0.45902333  0.40374000  1.0
  O2-  O4  1  0.09925000  0.79235667  0.40374000  1.0
  O2-  O4  1  0.59925000  0.12569000  0.40374000  1.0
  O2-  O4  1  0.59925000  0.45902333  0.40374000  1.0
  O2-  O4  1  0.59925000  0.79235667  0.40374000  1.0
  O2-  O4  1  0.40075000  0.20764333  0.59626000  1.0
  O2-  O4  1  0.40075000  0.54097667  0.59626000  1.0
  O2-  O4  1  0.40075000  0.87431000  0.59626000  1.0
  O2-  O4  1  0.90075000  0.20764333  0.59626000  1.0
  O2-  O4  1  0.90075000  0.54097667  0.59626000  1.0
  O2-  O4  1  0.90075000  0.87431000  0.59626000  1.0
  O2-  O5  1  0.13785000  0.02177000  0.89202000  1.0
  O2-  O5  1  0.13785000  0.35510333  0.89202000  1.0
  O2-  O5  1  0.13785000  0.68843667  0.89202000  1.0
  O2-  O5  1  0.63785000  0.02177000  0.89202000  1.0
  O2-  O5  1  0.63785000  0.35510333  0.89202000  1.0
  O2-  O5  1  0.63785000  0.68843667  0.89202000  1.0
  O2-  O5  1  0.36215000  0.31156333  0.10798000  1.0
  O2-  O5  1  0.36215000  0.64489667  0.10798000  1.0
  O2-  O5  1  0.36215000  0.97823000  0.10798000  1.0
  O2-  O5  1  0.86215000  0.31156333  0.10798000  1.0
  O2-  O5  1  0.86215000  0.64489667  0.10798000  1.0
  O2-  O5  1  0.86215000  0.97823000  0.10798000  1.0
  O2-  O6  1  0.17805000  0.12474667  0.94422000  1.0
  O2-  O6  1  0.17805000  0.45808000  0.94422000  1.0
  O2-  O6  1  0.17805000  0.79141333  0.94422000  1.0
  O2-  O6  1  0.67805000  0.12474667  0.94422000  1.0
  O2-  O6  1  0.67805000  0.45808000  0.94422000  1.0
  O2-  O6  1  0.67805000  0.79141333  0.94422000  1.0
  O2-  O6  1  0.32195000  0.20858667  0.05578000  1.0
  O2-  O6  1  0.32195000  0.54192000  0.05578000  1.0
  O2-  O6  1  0.32195000  0.87525333  0.05578000  1.0
  O2-  O6  1  0.82195000  0.20858667  0.05578000  1.0
  O2-  O6  1  0.82195000  0.54192000  0.05578000  1.0
  O2-  O6  1  0.82195000  0.87525333  0.05578000  1.0
  O2-  O7  1  0.09925000  0.02220333  0.60479000  1.0
  O2-  O7  1  0.09925000  0.35553667  0.60479000  1.0
  O2-  O7  1  0.09925000  0.68887000  0.60479000  1.0
  O2-  O7  1  0.59925000  0.02220333  0.60479000  1.0
  O2-  O7  1  0.59925000  0.35553667  0.60479000  1.0
  O2-  O7  1  0.59925000  0.68887000  0.60479000  1.0
  O2-  O7  1  0.40075000  0.31113000  0.39521000  1.0
  O2-  O7  1  0.40075000  0.64446333  0.39521000  1.0
  O2-  O7  1  0.40075000  0.97779667  0.39521000  1.0
  O2-  O7  1  0.90075000  0.31113000  0.39521000  1.0
  O2-  O7  1  0.90075000  0.64446333  0.39521000  1.0
  O2-  O7  1  0.90075000  0.97779667  0.39521000  1.0
  O2-  O8  1  0.29145000  0.09585000  0.50591000  1.0
  O2-  O8  1  0.29145000  0.42918333  0.50591000  1.0
  O2-  O8  1  0.29145000  0.76251667  0.50591000  1.0
  O2-  O8  1  0.79145000  0.09585000  0.50591000  1.0
  O2-  O8  1  0.79145000  0.42918333  0.50591000  1.0
  O2-  O8  1  0.79145000  0.76251667  0.50591000  1.0
  O2-  O8  1  0.20855000  0.23748333  0.49409000  1.0
  O2-  O8  1  0.20855000  0.57081667  0.49409000  1.0
  O2-  O8  1  0.20855000  0.90415000  0.49409000  1.0
  O2-  O8  1  0.70855000  0.23748333  0.49409000  1.0
  O2-  O8  1  0.70855000  0.57081667  0.49409000  1.0
  O2-  O8  1  0.70855000  0.90415000  0.49409000  1.0
