# generated using pymatgen
data_Li59Sb10(S5I)10
_symmetry_space_group_name_H-M   'P 1'
_cell_length_a   7.37121131
_cell_length_b   36.85605653
_cell_length_c   14.74242261
_cell_angle_alpha   60.00000000
_cell_angle_beta   120.00000000
_cell_angle_gamma   120.00000000
_symmetry_Int_Tables_number   1
_chemical_formula_structural   Li59Sb10(S5I)10
_chemical_formula_sum   'Li59 Sb10 S50 I10'
_cell_volume   2832.05436168
_cell_formula_units_Z   1
loop_
 _symmetry_equiv_pos_site_id
 _symmetry_equiv_pos_as_xyz
  1  'x, y, z'
loop_
 _atom_type_symbol
 _atom_type_oxidation_number
  Li+  1.0
  Sb5+  5.0
  S2-  -2.0
  I-  -1.0
loop_
 _atom_site_type_symbol
 _atom_site_label
 _atom_site_symmetry_multiplicity
 _atom_site_fract_x
 _atom_site_fract_y
 _atom_site_fract_z
 _atom_site_occupancy
  Li+  Li0  1  0.98400000  0.49680000  0.25800000  1.0
  Li+  Li1  1  0.98400000  0.29680000  0.75800000  1.0
  Li+  Li2  1  0.51600000  0.40320000  0.99200000  1.0
  Li+  Li3  1  0.51906346  0.00510962  0.99149986  1.0
  Li+  Li4  1  0.51600000  0.89680000  0.25800000  1.0
  Li+  Li5  1  0.51702542  0.29928489  0.25513926  1.0
  Li+  Li6  1  0.51600000  0.89680000  0.75800000  1.0
  Li+  Li7  1  0.51500870  0.80088130  0.26152473  1.0
  Li+  Li8  1  0.51600000  0.40320000  0.25800000  1.0
  Li+  Li9  1  0.51600000  0.00320000  0.25800000  1.0
  Li+  Li10  1  0.51600000  0.60320000  0.75800000  1.0
  Li+  Li11  1  0.51697327  0.20257580  0.75759840  1.0
  Li+  Li12  1  0.98400000  0.89680000  0.99200000  1.0
  Li+  Li13  1  0.98400000  0.29680000  0.99200000  1.0
  Li+  Li14  1  0.98400000  0.80320000  0.49200000  1.0
  Li+  Li15  1  0.98400000  0.20320000  0.99200000  1.0
  Li+  Li16  1  0.97533754  0.80367091  0.53613993  1.0
  Li+  Li17  1  0.97830461  0.39997316  0.53250318  1.0
  Li+  Li18  1  0.97640000  0.00472000  0.53320000  1.0
  Li+  Li19  1  0.97387978  0.80641770  0.03422566  1.0
  Li+  Li20  1  0.97640000  0.40472000  0.03320000  1.0
  Li+  Li21  1  0.61360000  0.20472000  0.26180000  1.0
  Li+  Li22  1  0.61523592  0.00547589  0.26110629  1.0
  Li+  Li23  1  0.61360000  0.80472000  0.76180000  1.0
  Li+  Li24  1  0.97640000  0.91328000  0.44320000  1.0
  Li+  Li25  1  0.97640000  0.71328000  0.44320000  1.0
  Li+  Li26  1  0.97640000  0.51328000  0.44320000  1.0
  Li+  Li27  1  0.97243517  0.71512039  0.94462025  1.0
  Li+  Li28  1  0.97640000  0.11328000  0.94320000  1.0
  Li+  Li29  1  0.97620229  0.80695661  0.44209916  1.0
  Li+  Li30  1  0.97729447  0.60587063  0.43739925  1.0
  Li+  Li31  1  0.97640000  0.20472000  0.44320000  1.0
  Li+  Li32  1  0.97640000  0.60472000  0.94320000  1.0
  Li+  Li33  1  0.61169026  0.40158767  0.53401968  1.0
  Li+  Li34  1  0.61471768  0.20562838  0.53681181  1.0
  Li+  Li35  1  0.43360000  0.60472000  0.44320000  1.0
  Li+  Li36  1  0.43360000  0.40472000  0.44320000  1.0
  Li+  Li37  1  0.43360000  0.00472000  0.44320000  1.0
  Li+  Li38  1  0.61360000  0.11328000  0.26180000  1.0
  Li+  Li39  1  0.61360000  0.31328000  0.76180000  1.0
  Li+  Li40  1  0.97640000  0.87728000  0.53320000  1.0
  Li+  Li41  1  0.97640000  0.27728000  0.53320000  1.0
  Li+  Li42  1  0.97640000  0.07728000  0.53320000  1.0
  Li+  Li43  1  0.97640000  0.67728000  0.03320000  1.0
  Li+  Li44  1  0.43360000  0.47728000  0.26180000  1.0
  Li+  Li45  1  0.43360000  0.67728000  0.76180000  1.0
  Li+  Li46  1  0.43351928  0.47987481  0.76350794  1.0
  Li+  Li47  1  0.42782233  0.27579275  0.76081038  1.0
  Li+  Li48  1  0.43360000  0.40472000  0.26180000  1.0
  Li+  Li49  1  0.43360000  0.20472000  0.26180000  1.0
  Li+  Li50  1  0.43360000  0.40472000  0.76180000  1.0
  Li+  Li51  1  0.43360000  0.20472000  0.76180000  1.0
  Li+  Li52  1  0.98133191  0.67759890  0.25983691  1.0
  Li+  Li53  1  0.97640000  0.47728000  0.26180000  1.0
  Li+  Li54  1  0.97640000  0.87728000  0.76180000  1.0
  Li+  Li55  1  0.97640000  0.47728000  0.76180000  1.0
  Li+  Li56  1  0.97347562  0.11120183  0.25961563  1.0
  Li+  Li57  1  0.97640000  0.71328000  0.76180000  1.0
  Li+  Li58  1  0.97640000  0.51328000  0.76180000  1.0
  Sb5+  Sb59  1  0.50000000  0.90000000  0.50000000  1.0
  Sb5+  Sb60  1  0.50000000  0.70000000  0.50000000  1.0
  Sb5+  Sb61  1  0.50000000  0.50000000  0.50000000  1.0
  Sb5+  Sb62  1  0.50000000  0.30000000  0.50000000  1.0
  Sb5+  Sb63  1  0.50000000  0.10000000  0.50000000  1.0
  Sb5+  Sb64  1  0.50000000  0.90000000  0.00000000  1.0
  Sb5+  Sb65  1  0.50000000  0.70000000  0.00000000  1.0
  Sb5+  Sb66  1  0.50000000  0.50000000  0.00000000  1.0
  Sb5+  Sb67  1  0.50000000  0.30000000  0.00000000  1.0
  Sb5+  Sb68  1  0.50000000  0.10000000  0.00000000  1.0
  S2-  S69  1  0.74323867  0.84701948  0.37714993  1.0
  S2-  S70  1  0.75000000  0.65000000  0.37500000  1.0
  S2-  S71  1  0.75000000  0.45000000  0.37500000  1.0
  S2-  S72  1  0.75000000  0.25000000  0.37500000  1.0
  S2-  S73  1  0.75000000  0.05000000  0.37500000  1.0
  S2-  S74  1  0.75000000  0.85000000  0.87500000  1.0
  S2-  S75  1  0.75000000  0.65000000  0.87500000  1.0
  S2-  S76  1  0.75000000  0.45000000  0.87500000  1.0
  S2-  S77  1  0.75000000  0.25000000  0.87500000  1.0
  S2-  S78  1  0.74896520  0.04858066  0.87312321  1.0
  S2-  S79  1  0.88400000  0.92560000  0.56400000  1.0
  S2-  S80  1  0.88319527  0.72523291  0.56456179  1.0
  S2-  S81  1  0.88400000  0.52560000  0.56400000  1.0
  S2-  S82  1  0.88400000  0.32560000  0.56400000  1.0
  S2-  S83  1  0.88400000  0.12560000  0.56400000  1.0
  S2-  S84  1  0.88400000  0.92560000  0.06400000  1.0
  S2-  S85  1  0.88400000  0.72560000  0.06400000  1.0
  S2-  S86  1  0.88400000  0.52560000  0.06400000  1.0
  S2-  S87  1  0.88400000  0.32560000  0.06400000  1.0
  S2-  S88  1  0.88400000  0.12560000  0.06400000  1.0
  S2-  S89  1  0.37200000  0.82320000  0.56400000  1.0
  S2-  S90  1  0.37065326  0.62173995  0.56221758  1.0
  S2-  S91  1  0.37200000  0.42320000  0.56400000  1.0
  S2-  S92  1  0.37200000  0.22320000  0.56400000  1.0
  S2-  S93  1  0.37200000  0.02320000  0.56400000  1.0
  S2-  S94  1  0.37490643  0.82091355  0.06364525  1.0
  S2-  S95  1  0.37014059  0.62132928  0.06667406  1.0
  S2-  S96  1  0.37200000  0.42320000  0.06400000  1.0
  S2-  S97  1  0.37200000  0.22320000  0.06400000  1.0
  S2-  S98  1  0.37200000  0.02320000  0.06400000  1.0
  S2-  S99  1  0.37200000  0.92560000  0.56400000  1.0
  S2-  S100  1  0.37196918  0.72675763  0.56648811  1.0
  S2-  S101  1  0.37200000  0.52560000  0.56400000  1.0
  S2-  S102  1  0.37505545  0.32676391  0.56866054  1.0
  S2-  S103  1  0.37200000  0.12560000  0.56400000  1.0
  S2-  S104  1  0.37200000  0.92560000  0.06400000  1.0
  S2-  S105  1  0.37200000  0.72560000  0.06400000  1.0
  S2-  S106  1  0.37080588  0.52268974  0.06519710  1.0
  S2-  S107  1  0.37200000  0.32560000  0.06400000  1.0
  S2-  S108  1  0.37200000  0.12560000  0.06400000  1.0
  S2-  S109  1  0.37355338  0.92796074  0.30885663  1.0
  S2-  S110  1  0.37418233  0.73124316  0.30368991  1.0
  S2-  S111  1  0.37511216  0.52414816  0.30983846  1.0
  S2-  S112  1  0.37200000  0.32560000  0.30800000  1.0
  S2-  S113  1  0.37200000  0.12560000  0.30800000  1.0
  S2-  S114  1  0.37200000  0.92560000  0.80800000  1.0
  S2-  S115  1  0.37200000  0.72560000  0.80800000  1.0
  S2-  S116  1  0.37200000  0.52560000  0.80800000  1.0
  S2-  S117  1  0.37563445  0.32746233  0.80952433  1.0
  S2-  S118  1  0.37200000  0.12560000  0.80800000  1.0
  I-  I119  1  0.00164197  0.99782764  0.74787245  1.0
  I-  I120  1  0.00000000  0.80000000  0.75000000  1.0
  I-  I121  1  0.00000000  0.60000000  0.75000000  1.0
  I-  I122  1  0.00000000  0.40000000  0.75000000  1.0
  I-  I123  1  0.00000000  0.20000000  0.75000000  1.0
  I-  I124  1  0.00000000  0.00000000  0.25000000  1.0
  I-  I125  1  0.00000000  0.80000000  0.25000000  1.0
  I-  I126  1  0.00000000  0.60000000  0.25000000  1.0
  I-  I127  1  0.00000000  0.40000000  0.25000000  1.0
  I-  I128  1  0.99956831  0.19656747  0.25047590  1.0
