# generated using pymatgen
data_Li59Sb10(S5I)10
_symmetry_space_group_name_H-M   'P 1'
_cell_length_a   7.37121131
_cell_length_b   14.74242261
_cell_length_c   36.85605653
_cell_angle_alpha   60.00000000
_cell_angle_beta   60.00000000
_cell_angle_gamma   60.00000000
_symmetry_Int_Tables_number   1
_chemical_formula_structural   Li59Sb10(S5I)10
_chemical_formula_sum   'Li59 Sb10 S50 I10'
_cell_volume   2832.05436168
_cell_formula_units_Z   1
loop_
 _symmetry_equiv_pos_site_id
 _symmetry_equiv_pos_as_xyz
  1  'x, y, z'
loop_
 _atom_type_symbol
 _atom_type_oxidation_number
  Li+  1.0
  Sb5+  5.0
  S2-  -2.0
  I-  -1.0
loop_
 _atom_site_type_symbol
 _atom_site_label
 _atom_site_symmetry_multiplicity
 _atom_site_fract_x
 _atom_site_fract_y
 _atom_site_fract_z
 _atom_site_occupancy
  Li+  Li0  1  0.98400000  0.49200000  0.50320000  1.0
  Li+  Li1  1  0.98400000  0.99200000  0.70320000  1.0
  Li+  Li2  1  0.51600000  0.75800000  0.59680000  1.0
  Li+  Li3  1  0.51600000  0.75800000  0.99680000  1.0
  Li+  Li4  1  0.51600000  0.49200000  0.10320000  1.0
  Li+  Li5  1  0.51600000  0.49200000  0.70320000  1.0
  Li+  Li6  1  0.51600000  0.99200000  0.10320000  1.0
  Li+  Li7  1  0.51600000  0.49200000  0.19680000  1.0
  Li+  Li8  1  0.51600000  0.49200000  0.59680000  1.0
  Li+  Li9  1  0.51600000  0.49200000  0.99680000  1.0
  Li+  Li10  1  0.51600000  0.99200000  0.39680000  1.0
  Li+  Li11  1  0.51600000  0.99200000  0.79680000  1.0
  Li+  Li12  1  0.98400000  0.75800000  0.10320000  1.0
  Li+  Li13  1  0.98400000  0.75800000  0.70320000  1.0
  Li+  Li14  1  0.98400000  0.25800000  0.19680000  1.0
  Li+  Li15  1  0.98400000  0.75800000  0.79680000  1.0
  Li+  Li16  1  0.97640000  0.21680000  0.19528000  1.0
  Li+  Li17  1  0.97640000  0.21680000  0.59528000  1.0
  Li+  Li18  1  0.97640000  0.21680000  0.99528000  1.0
  Li+  Li19  1  0.97640000  0.71680000  0.19528000  1.0
  Li+  Li20  1  0.97640000  0.71680000  0.59528000  1.0
  Li+  Li21  1  0.61360000  0.48820000  0.79528000  1.0
  Li+  Li22  1  0.61360000  0.48820000  0.99528000  1.0
  Li+  Li23  1  0.61360000  0.98820000  0.19528000  1.0
  Li+  Li24  1  0.97640000  0.30680000  0.08672000  1.0
  Li+  Li25  1  0.97640000  0.30680000  0.28672000  1.0
  Li+  Li26  1  0.97640000  0.30680000  0.48672000  1.0
  Li+  Li27  1  0.97640000  0.80680000  0.28672000  1.0
  Li+  Li28  1  0.97640000  0.80680000  0.88672000  1.0
  Li+  Li29  1  0.97640000  0.30680000  0.19528000  1.0
  Li+  Li30  1  0.97640000  0.30680000  0.39528000  1.0
  Li+  Li31  1  0.97640000  0.30680000  0.79528000  1.0
  Li+  Li32  1  0.97640000  0.80680000  0.39528000  1.0
  Li+  Li33  1  0.61360000  0.21680000  0.59528000  1.0
  Li+  Li34  1  0.61360000  0.21680000  0.79528000  1.0
  Li+  Li35  1  0.43360000  0.30680000  0.39528000  1.0
  Li+  Li36  1  0.43360000  0.30680000  0.59528000  1.0
  Li+  Li37  1  0.43360000  0.30680000  0.99528000  1.0
  Li+  Li38  1  0.61360000  0.48820000  0.88672000  1.0
  Li+  Li39  1  0.61360000  0.98820000  0.68672000  1.0
  Li+  Li40  1  0.97640000  0.21680000  0.12272000  1.0
  Li+  Li41  1  0.97640000  0.21680000  0.72272000  1.0
  Li+  Li42  1  0.97640000  0.21680000  0.92272000  1.0
  Li+  Li43  1  0.97640000  0.71680000  0.32272000  1.0
  Li+  Li44  1  0.43360000  0.48820000  0.52272000  1.0
  Li+  Li45  1  0.43360000  0.98820000  0.32272000  1.0
  Li+  Li46  1  0.43360000  0.98820000  0.52272000  1.0
  Li+  Li47  1  0.43360000  0.98820000  0.72272000  1.0
  Li+  Li48  1  0.43360000  0.48820000  0.59528000  1.0
  Li+  Li49  1  0.43360000  0.48820000  0.79528000  1.0
  Li+  Li50  1  0.43360000  0.98820000  0.59528000  1.0
  Li+  Li51  1  0.43360000  0.98820000  0.79528000  1.0
  Li+  Li52  1  0.97640000  0.48820000  0.32272000  1.0
  Li+  Li53  1  0.97640000  0.48820000  0.52272000  1.0
  Li+  Li54  1  0.97640000  0.98820000  0.12272000  1.0
  Li+  Li55  1  0.97640000  0.98820000  0.52272000  1.0
  Li+  Li56  1  0.97640000  0.48820000  0.88672000  1.0
  Li+  Li57  1  0.97640000  0.98820000  0.28672000  1.0
  Li+  Li58  1  0.97640000  0.98820000  0.48672000  1.0
  Sb5+  Sb1  1  0.50000000  0.25000000  0.10000000  1.0
  Sb5+  Sb1  1  0.50000000  0.25000000  0.30000000  1.0
  Sb5+  Sb1  1  0.50000000  0.25000000  0.50000000  1.0
  Sb5+  Sb1  1  0.50000000  0.25000000  0.70000000  1.0
  Sb5+  Sb1  1  0.50000000  0.25000000  0.90000000  1.0
  Sb5+  Sb1  1  0.50000000  0.75000000  0.10000000  1.0
  Sb5+  Sb1  1  0.50000000  0.75000000  0.30000000  1.0
  Sb5+  Sb1  1  0.50000000  0.75000000  0.50000000  1.0
  Sb5+  Sb1  1  0.50000000  0.75000000  0.70000000  1.0
  Sb5+  Sb1  1  0.50000000  0.75000000  0.90000000  1.0
  S2-  S1  1  0.75000000  0.37500000  0.15000000  1.0
  S2-  S1  1  0.75000000  0.37500000  0.35000000  1.0
  S2-  S1  1  0.75000000  0.37500000  0.55000000  1.0
  S2-  S1  1  0.75000000  0.37500000  0.75000000  1.0
  S2-  S1  1  0.75000000  0.37500000  0.95000000  1.0
  S2-  S1  1  0.75000000  0.87500000  0.15000000  1.0
  S2-  S1  1  0.75000000  0.87500000  0.35000000  1.0
  S2-  S1  1  0.75000000  0.87500000  0.55000000  1.0
  S2-  S1  1  0.75000000  0.87500000  0.75000000  1.0
  S2-  S1  1  0.75000000  0.87500000  0.95000000  1.0
  S2-  S2  1  0.88400000  0.18600000  0.07440000  1.0
  S2-  S2  1  0.88400000  0.18600000  0.27440000  1.0
  S2-  S2  1  0.88400000  0.18600000  0.47440000  1.0
  S2-  S2  1  0.88400000  0.18600000  0.67440000  1.0
  S2-  S2  1  0.88400000  0.18600000  0.87440000  1.0
  S2-  S2  1  0.88400000  0.68600000  0.07440000  1.0
  S2-  S2  1  0.88400000  0.68600000  0.27440000  1.0
  S2-  S2  1  0.88400000  0.68600000  0.47440000  1.0
  S2-  S2  1  0.88400000  0.68600000  0.67440000  1.0
  S2-  S2  1  0.88400000  0.68600000  0.87440000  1.0
  S2-  S2  1  0.37200000  0.18600000  0.17680000  1.0
  S2-  S2  1  0.37200000  0.18600000  0.37680000  1.0
  S2-  S2  1  0.37200000  0.18600000  0.57680000  1.0
  S2-  S2  1  0.37200000  0.18600000  0.77680000  1.0
  S2-  S2  1  0.37200000  0.18600000  0.97680000  1.0
  S2-  S2  1  0.37200000  0.68600000  0.17680000  1.0
  S2-  S2  1  0.37200000  0.68600000  0.37680000  1.0
  S2-  S2  1  0.37200000  0.68600000  0.57680000  1.0
  S2-  S2  1  0.37200000  0.68600000  0.77680000  1.0
  S2-  S2  1  0.37200000  0.68600000  0.97680000  1.0
  S2-  S2  1  0.37200000  0.18600000  0.07440000  1.0
  S2-  S2  1  0.37200000  0.18600000  0.27440000  1.0
  S2-  S2  1  0.37200000  0.18600000  0.47440000  1.0
  S2-  S2  1  0.37200000  0.18600000  0.67440000  1.0
  S2-  S2  1  0.37200000  0.18600000  0.87440000  1.0
  S2-  S2  1  0.37200000  0.68600000  0.07440000  1.0
  S2-  S2  1  0.37200000  0.68600000  0.27440000  1.0
  S2-  S2  1  0.37200000  0.68600000  0.47440000  1.0
  S2-  S2  1  0.37200000  0.68600000  0.67440000  1.0
  S2-  S2  1  0.37200000  0.68600000  0.87440000  1.0
  S2-  S2  1  0.37200000  0.44200000  0.07440000  1.0
  S2-  S2  1  0.37200000  0.44200000  0.27440000  1.0
  S2-  S2  1  0.37200000  0.44200000  0.47440000  1.0
  S2-  S2  1  0.37200000  0.44200000  0.67440000  1.0
  S2-  S2  1  0.37200000  0.44200000  0.87440000  1.0
  S2-  S2  1  0.37200000  0.94200000  0.07440000  1.0
  S2-  S2  1  0.37200000  0.94200000  0.27440000  1.0
  S2-  S2  1  0.37200000  0.94200000  0.47440000  1.0
  S2-  S2  1  0.37200000  0.94200000  0.67440000  1.0
  S2-  S2  1  0.37200000  0.94200000  0.87440000  1.0
  I-  I1  1  0.00000000  0.00000000  0.00000000  1.0
  I-  I1  1  0.00000000  0.00000000  0.20000000  1.0
  I-  I1  1  0.00000000  0.00000000  0.40000000  1.0
  I-  I1  1  0.00000000  0.00000000  0.60000000  1.0
  I-  I1  1  0.00000000  0.00000000  0.80000000  1.0
  I-  I1  1  0.00000000  0.50000000  0.00000000  1.0
  I-  I1  1  0.00000000  0.50000000  0.20000000  1.0
  I-  I1  1  0.00000000  0.50000000  0.40000000  1.0
  I-  I1  1  0.00000000  0.50000000  0.60000000  1.0
  I-  I1  1  0.00000000  0.50000000  0.80000000  1.0
