# generated using pymatgen
data_Li31SnSb4(S5I)5
_symmetry_space_group_name_H-M   'P 1'
_cell_length_a   36.91769149
_cell_length_b   14.76707660
_cell_length_c   7.38353830
_cell_angle_alpha   60.00000000
_cell_angle_beta   120.00000000
_cell_angle_gamma   120.00000000
_symmetry_Int_Tables_number   1
_chemical_formula_structural   Li31SnSb4(S5I)5
_chemical_formula_sum   'Li62 Sn2 Sb8 S50 I10'
_cell_volume   2846.28640248
_cell_formula_units_Z   2
loop_
 _symmetry_equiv_pos_site_id
 _symmetry_equiv_pos_as_xyz
  1  'x, y, z'
loop_
 _atom_type_symbol
 _atom_type_oxidation_number
  Li+  1.0
  Sn4+  4.0
  Sb5+  5.0
  S2-  -2.0
  I-  -1.0
loop_
 _atom_site_type_symbol
 _atom_site_label
 _atom_site_symmetry_multiplicity
 _atom_site_fract_x
 _atom_site_fract_y
 _atom_site_fract_z
 _atom_site_occupancy
  Li+  Li0  1  0.19580000  0.51050000  0.22900000  1.0
  Li+  Li1  1  0.39690546  0.51058187  0.22892256  1.0
  Li+  Li2  1  0.59503075  0.51244567  0.22744874  1.0
  Li+  Li3  1  0.99580000  0.01050000  0.22900000  1.0
  Li+  Li4  1  0.70420000  0.73950000  0.77100000  1.0
  Li+  Li5  1  0.70420000  0.23950000  0.77100000  1.0
  Li+  Li6  1  0.90420000  0.51050000  0.77100000  1.0
  Li+  Li7  1  0.19580000  0.23950000  0.22900000  1.0
  Li+  Li8  1  0.59580000  0.23950000  0.22900000  1.0
  Li+  Li9  1  0.79580000  0.73950000  0.77100000  1.0
  Li+  Li10  1  0.10420000  0.51050000  0.22900000  1.0
  Li+  Li11  1  0.30420000  0.01050000  0.22900000  1.0
  Li+  Li12  1  0.70420000  0.51050000  0.22900000  1.0
  Li+  Li13  1  0.19524000  0.01190000  0.31020000  1.0
  Li+  Li14  1  0.79524000  0.51190000  0.31020000  1.0
  Li+  Li15  1  0.79524000  0.01190000  0.31020000  1.0
  Li+  Li16  1  0.12156000  0.28010000  0.77380000  1.0
  Li+  Li17  1  0.72156000  0.78010000  0.77380000  1.0
  Li+  Li18  1  0.91692691  0.78160624  0.77537739  1.0
  Li+  Li19  1  0.99524000  0.51190000  0.14220000  1.0
  Li+  Li20  1  0.28796000  0.69610000  0.77380000  1.0
  Li+  Li21  1  0.48796000  0.69610000  0.77380000  1.0
  Li+  Li22  1  0.48796000  0.19610000  0.77380000  1.0
  Li+  Li23  1  0.88796000  0.69610000  0.77380000  1.0
  Li+  Li24  1  0.88615459  0.19538420  0.77161893  1.0
  Li+  Li25  1  0.08796000  0.51190000  0.77380000  1.0
  Li+  Li26  1  0.08796000  0.01190000  0.77380000  1.0
  Li+  Li27  1  0.28796000  0.51190000  0.77380000  1.0
  Li+  Li28  1  0.28796000  0.01190000  0.77380000  1.0
  Li+  Li29  1  0.48796000  0.01190000  0.77380000  1.0
  Li+  Li30  1  0.19524000  0.69610000  0.31020000  1.0
  Li+  Li31  1  0.39524000  0.69610000  0.31020000  1.0
  Li+  Li32  1  0.39371032  0.19773105  0.31217211  1.0
  Li+  Li33  1  0.59554032  0.19578169  0.30805868  1.0
  Li+  Li34  1  0.12156000  0.51190000  0.77380000  1.0
  Li+  Li35  1  0.32156000  0.51190000  0.77380000  1.0
  Li+  Li36  1  0.32431882  0.01165528  0.77084722  1.0
  Li+  Li37  1  0.52156000  0.51190000  0.77380000  1.0
  Li+  Li38  1  0.72156000  0.51190000  0.77380000  1.0
  Li+  Li39  1  0.72156000  0.01190000  0.77380000  1.0
  Li+  Li40  1  0.91937665  0.01145688  0.77618568  1.0
  Li+  Li41  1  0.79142479  0.78491812  0.14257792  1.0
  Li+  Li42  1  0.79453843  0.28200164  0.14525823  1.0
  Li+  Li43  1  0.19524000  0.78010000  0.77380000  1.0
  Li+  Li44  1  0.39524000  0.78010000  0.77380000  1.0
  Li+  Li45  1  0.59524000  0.78010000  0.77380000  1.0
  Li+  Li46  1  0.79524000  0.78010000  0.77380000  1.0
  Li+  Li47  1  0.79524000  0.28010000  0.77380000  1.0
  Li+  Li48  1  0.28796000  0.01190000  0.14220000  1.0
  Li+  Li49  1  0.48796000  0.51190000  0.14220000  1.0
  Li+  Li50  1  0.48573837  0.01364856  0.14264827  1.0
  Li+  Li51  1  0.68796000  0.01190000  0.14220000  1.0
  Li+  Li52  1  0.88796000  0.51190000  0.14220000  1.0
  Li+  Li53  1  0.39550068  0.69540923  0.77511284  1.0
  Li+  Li54  1  0.39456416  0.19843182  0.77152132  1.0
  Li+  Li55  1  0.59524000  0.69610000  0.77380000  1.0
  Li+  Li56  1  0.79203620  0.19712585  0.76894520  1.0
  Li+  Li57  1  0.99743944  0.69686366  0.77260979  1.0
  Li+  Li58  1  0.99524000  0.19610000  0.77380000  1.0
  Li+  Li59  1  0.12156000  0.01190000  0.31020000  1.0
  Li+  Li60  1  0.72156000  0.51190000  0.31020000  1.0
  Li+  Li61  1  0.92156000  0.01190000  0.31020000  1.0
  Sn4+  Sn62  1  0.50000000  0.25000000  0.25000000  1.0
  Sn4+  Sn63  1  0.90000000  0.75000000  0.25000000  1.0
  Sb5+  Sb64  1  0.10000000  0.75000000  0.25000000  1.0
  Sb5+  Sb65  1  0.10000000  0.25000000  0.25000000  1.0
  Sb5+  Sb66  1  0.30000000  0.75000000  0.25000000  1.0
  Sb5+  Sb67  1  0.30000000  0.25000000  0.25000000  1.0
  Sb5+  Sb68  1  0.50000000  0.75000000  0.25000000  1.0
  Sb5+  Sb69  1  0.70214860  0.75131596  0.24951771  1.0
  Sb5+  Sb70  1  0.70000000  0.25000000  0.25000000  1.0
  Sb5+  Sb71  1  0.90000000  0.25000000  0.25000000  1.0
  S2-  S72  1  0.17710600  0.81425500  0.37851000  1.0
  S2-  S73  1  0.17710600  0.31425500  0.37851000  1.0
  S2-  S74  1  0.37710600  0.81425500  0.37851000  1.0
  S2-  S75  1  0.37811885  0.31419865  0.37812522  1.0
  S2-  S76  1  0.57710600  0.81425500  0.37851000  1.0
  S2-  S77  1  0.57904114  0.31375433  0.37871565  1.0
  S2-  S78  1  0.77710600  0.81425500  0.37851000  1.0
  S2-  S79  1  0.77710600  0.31425500  0.37851000  1.0
  S2-  S80  1  0.97258491  0.81547700  0.37952981  1.0
  S2-  S81  1  0.97132811  0.31421827  0.37801953  1.0
  S2-  S82  1  0.07429800  0.81425500  0.37851000  1.0
  S2-  S83  1  0.07484308  0.32035014  0.37719733  1.0
  S2-  S84  1  0.27429800  0.81425500  0.37851000  1.0
  S2-  S85  1  0.26980270  0.31380520  0.37557552  1.0
  S2-  S86  1  0.47429800  0.81425500  0.37851000  1.0
  S2-  S87  1  0.47429800  0.31425500  0.37851000  1.0
  S2-  S88  1  0.67429800  0.81425500  0.37851000  1.0
  S2-  S89  1  0.67429800  0.31425500  0.37851000  1.0
  S2-  S90  1  0.87429800  0.81425500  0.37851000  1.0
  S2-  S91  1  0.87445877  0.30628661  0.37617327  1.0
  S2-  S92  1  0.07429800  0.55723500  0.37851000  1.0
  S2-  S93  1  0.07429800  0.05723500  0.37851000  1.0
  S2-  S94  1  0.27429800  0.55723500  0.37851000  1.0
  S2-  S95  1  0.27433443  0.05981836  0.37768133  1.0
  S2-  S96  1  0.47429800  0.55723500  0.37851000  1.0
  S2-  S97  1  0.46889582  0.05560656  0.37843459  1.0
  S2-  S98  1  0.67688649  0.56017807  0.37693329  1.0
  S2-  S99  1  0.67429800  0.05723500  0.37851000  1.0
  S2-  S100  1  0.87649669  0.55735796  0.37847555  1.0
  S2-  S101  1  0.87477532  0.05861711  0.37941241  1.0
  S2-  S102  1  0.07429800  0.81425500  0.86447000  1.0
  S2-  S103  1  0.07429800  0.31425500  0.86447000  1.0
  S2-  S104  1  0.27286814  0.81206603  0.87023357  1.0
  S2-  S105  1  0.27429800  0.31425500  0.86447000  1.0
  S2-  S106  1  0.47429800  0.81425500  0.86447000  1.0
  S2-  S107  1  0.47429800  0.31425500  0.86447000  1.0
  S2-  S108  1  0.67429800  0.81425500  0.86447000  1.0
  S2-  S109  1  0.67429800  0.31425500  0.86447000  1.0
  S2-  S110  1  0.87429800  0.81425500  0.86447000  1.0
  S2-  S111  1  0.87429800  0.31425500  0.86447000  1.0
  S2-  S112  1  0.15000000  0.62500000  0.00000000  1.0
  S2-  S113  1  0.15000000  0.12500000  0.00000000  1.0
  S2-  S114  1  0.34804621  0.62058800  0.00161249  1.0
  S2-  S115  1  0.35000000  0.12500000  0.00000000  1.0
  S2-  S116  1  0.55000000  0.62500000  0.00000000  1.0
  S2-  S117  1  0.55000000  0.12500000  0.00000000  1.0
  S2-  S118  1  0.75000000  0.62500000  0.00000000  1.0
  S2-  S119  1  0.75000000  0.12500000  0.00000000  1.0
  S2-  S120  1  0.94907846  0.62439087  0.00139680  1.0
  S2-  S121  1  0.95000000  0.12500000  0.00000000  1.0
  I-  I122  1  0.00004015  0.99957374  0.75198429  1.0
  I-  I123  1  0.00000000  0.50000000  0.75000000  1.0
  I-  I124  1  0.20000000  0.00000000  0.75000000  1.0
  I-  I125  1  0.20000000  0.50000000  0.75000000  1.0
  I-  I126  1  0.40000000  0.00000000  0.75000000  1.0
  I-  I127  1  0.40000000  0.50000000  0.75000000  1.0
  I-  I128  1  0.60000000  0.00000000  0.75000000  1.0
  I-  I129  1  0.59709500  0.49643256  0.75134906  1.0
  I-  I130  1  0.80000000  0.00000000  0.75000000  1.0
  I-  I131  1  0.80000000  0.50000000  0.75000000  1.0
