# generated using pymatgen
data_Li31SnSb4(S5I)5
_symmetry_space_group_name_H-M   'P 1'
_cell_length_a   7.38049173
_cell_length_b   36.90245865
_cell_length_c   14.76098346
_cell_angle_alpha   120.00000000
_cell_angle_beta   120.00000000
_cell_angle_gamma   60.00000000
_symmetry_Int_Tables_number   1
_chemical_formula_structural   Li31SnSb4(S5I)5
_chemical_formula_sum   'Li62 Sn2 Sb8 S50 I10'
_cell_volume   2842.76458230
_cell_formula_units_Z   2
loop_
 _symmetry_equiv_pos_site_id
 _symmetry_equiv_pos_as_xyz
  1  'x, y, z'
loop_
 _atom_type_symbol
 _atom_type_oxidation_number
  Li+  1.0
  Sn4+  4.0
  Sb5+  5.0
  S2-  -2.0
  I-  -1.0
loop_
 _atom_site_type_symbol
 _atom_site_label
 _atom_site_symmetry_multiplicity
 _atom_site_fract_x
 _atom_site_fract_y
 _atom_site_fract_z
 _atom_site_occupancy
  Li+  Li0  1  0.47900000  0.47086667  0.48950000  1.0
  Li+  Li1  1  0.47900000  0.27086667  0.48950000  1.0
  Li+  Li2  1  0.47900000  0.07086667  0.48950000  1.0
  Li+  Li3  1  0.47900000  0.67086667  0.98950000  1.0
  Li+  Li4  1  0.02100000  0.96246667  0.26050000  1.0
  Li+  Li5  1  0.02100000  0.96246667  0.76050000  1.0
  Li+  Li6  1  0.02100000  0.76246667  0.48950000  1.0
  Li+  Li7  1  0.47900000  0.47086667  0.76050000  1.0
  Li+  Li8  1  0.47900000  0.07086667  0.76050000  1.0
  Li+  Li9  1  0.02100000  0.87086667  0.26050000  1.0
  Li+  Li10  1  0.47900000  0.56246667  0.48950000  1.0
  Li+  Li11  1  0.47900000  0.36246667  0.98950000  1.0
  Li+  Li12  1  0.47900000  0.96246667  0.48950000  1.0
  Li+  Li13  1  0.56020000  0.47142667  0.98810000  1.0
  Li+  Li14  1  0.56020000  0.87142667  0.48810000  1.0
  Li+  Li15  1  0.56020000  0.87142667  0.98810000  1.0
  Li+  Li16  1  0.02380000  0.54510667  0.71990000  1.0
  Li+  Li17  1  0.02380000  0.94510667  0.21990000  1.0
  Li+  Li18  1  0.02380000  0.74510667  0.21990000  1.0
  Li+  Li19  1  0.39220000  0.67142667  0.48810000  1.0
  Li+  Li20  1  0.02380000  0.37870667  0.30390000  1.0
  Li+  Li21  1  0.02380000  0.17870667  0.30390000  1.0
  Li+  Li22  1  0.02380000  0.17870667  0.80390000  1.0
  Li+  Li23  1  0.02380000  0.77870667  0.30390000  1.0
  Li+  Li24  1  0.02380000  0.77870667  0.80390000  1.0
  Li+  Li25  1  0.02380000  0.57870667  0.48810000  1.0
  Li+  Li26  1  0.02380000  0.57870667  0.98810000  1.0
  Li+  Li27  1  0.02380000  0.37870667  0.48810000  1.0
  Li+  Li28  1  0.02380000  0.37870667  0.98810000  1.0
  Li+  Li29  1  0.02380000  0.17870667  0.98810000  1.0
  Li+  Li30  1  0.56020000  0.47142667  0.30390000  1.0
  Li+  Li31  1  0.56020000  0.27142667  0.30390000  1.0
  Li+  Li32  1  0.56020000  0.27142667  0.80390000  1.0
  Li+  Li33  1  0.56020000  0.07142667  0.80390000  1.0
  Li+  Li34  1  0.02380000  0.54510667  0.48810000  1.0
  Li+  Li35  1  0.02380000  0.34510667  0.48810000  1.0
  Li+  Li36  1  0.02380000  0.34510667  0.98810000  1.0
  Li+  Li37  1  0.02380000  0.14510667  0.48810000  1.0
  Li+  Li38  1  0.02380000  0.94510667  0.48810000  1.0
  Li+  Li39  1  0.02380000  0.94510667  0.98810000  1.0
  Li+  Li40  1  0.02380000  0.74510667  0.98810000  1.0
  Li+  Li41  1  0.39220000  0.87142667  0.21990000  1.0
  Li+  Li42  1  0.39220000  0.87142667  0.71990000  1.0
  Li+  Li43  1  0.02380000  0.47142667  0.21990000  1.0
  Li+  Li44  1  0.02380000  0.27142667  0.21990000  1.0
  Li+  Li45  1  0.02380000  0.07142667  0.21990000  1.0
  Li+  Li46  1  0.02380000  0.87142667  0.21990000  1.0
  Li+  Li47  1  0.02380000  0.87142667  0.71990000  1.0
  Li+  Li48  1  0.39220000  0.37870667  0.98810000  1.0
  Li+  Li49  1  0.39220000  0.17870667  0.48810000  1.0
  Li+  Li50  1  0.39220000  0.17870667  0.98810000  1.0
  Li+  Li51  1  0.39220000  0.97870667  0.98810000  1.0
  Li+  Li52  1  0.39220000  0.77870667  0.48810000  1.0
  Li+  Li53  1  0.02380000  0.27142667  0.30390000  1.0
  Li+  Li54  1  0.02380000  0.27142667  0.80390000  1.0
  Li+  Li55  1  0.02380000  0.07142667  0.30390000  1.0
  Li+  Li56  1  0.02380000  0.87142667  0.80390000  1.0
  Li+  Li57  1  0.02380000  0.67142667  0.30390000  1.0
  Li+  Li58  1  0.02380000  0.67142667  0.80390000  1.0
  Li+  Li59  1  0.56020000  0.54510667  0.98810000  1.0
  Li+  Li60  1  0.56020000  0.94510667  0.48810000  1.0
  Li+  Li61  1  0.56020000  0.74510667  0.98810000  1.0
  Sn4+  Sn62  1  0.50000000  0.16666667  0.75000000  1.0
  Sn4+  Sn63  1  0.50000000  0.76666667  0.25000000  1.0
  Sb5+  Sb64  1  0.50000000  0.56666667  0.25000000  1.0
  Sb5+  Sb65  1  0.50000000  0.56666667  0.75000000  1.0
  Sb5+  Sb66  1  0.50000000  0.36666667  0.25000000  1.0
  Sb5+  Sb67  1  0.50000000  0.36666667  0.75000000  1.0
  Sb5+  Sb68  1  0.50000000  0.16666667  0.25000000  1.0
  Sb5+  Sb69  1  0.50000000  0.96666667  0.25000000  1.0
  Sb5+  Sb70  1  0.50000000  0.96666667  0.75000000  1.0
  Sb5+  Sb71  1  0.50000000  0.76666667  0.75000000  1.0
  S2-  S72  1  0.62851000  0.48956067  0.18574500  1.0
  S2-  S73  1  0.62851000  0.48956067  0.68574500  1.0
  S2-  S74  1  0.62851000  0.28956067  0.18574500  1.0
  S2-  S75  1  0.62851000  0.28956067  0.68574500  1.0
  S2-  S76  1  0.62851000  0.08956067  0.18574500  1.0
  S2-  S77  1  0.62851000  0.08956067  0.68574500  1.0
  S2-  S78  1  0.62851000  0.88956067  0.18574500  1.0
  S2-  S79  1  0.62851000  0.88956067  0.68574500  1.0
  S2-  S80  1  0.62851000  0.68956067  0.18574500  1.0
  S2-  S81  1  0.62851000  0.68956067  0.68574500  1.0
  S2-  S82  1  0.62851000  0.59236867  0.18574500  1.0
  S2-  S83  1  0.62851000  0.59236867  0.68574500  1.0
  S2-  S84  1  0.62851000  0.39236867  0.18574500  1.0
  S2-  S85  1  0.62851000  0.39236867  0.68574500  1.0
  S2-  S86  1  0.62851000  0.19236867  0.18574500  1.0
  S2-  S87  1  0.62851000  0.19236867  0.68574500  1.0
  S2-  S88  1  0.62851000  0.99236867  0.18574500  1.0
  S2-  S89  1  0.62851000  0.99236867  0.68574500  1.0
  S2-  S90  1  0.62851000  0.79236867  0.18574500  1.0
  S2-  S91  1  0.62851000  0.79236867  0.68574500  1.0
  S2-  S92  1  0.62851000  0.59236867  0.44276500  1.0
  S2-  S93  1  0.62851000  0.59236867  0.94276500  1.0
  S2-  S94  1  0.62851000  0.39236867  0.44276500  1.0
  S2-  S95  1  0.62851000  0.39236867  0.94276500  1.0
  S2-  S96  1  0.62851000  0.19236867  0.44276500  1.0
  S2-  S97  1  0.62851000  0.19236867  0.94276500  1.0
  S2-  S98  1  0.62851000  0.99236867  0.44276500  1.0
  S2-  S99  1  0.62851000  0.99236867  0.94276500  1.0
  S2-  S100  1  0.62851000  0.79236867  0.44276500  1.0
  S2-  S101  1  0.62851000  0.79236867  0.94276500  1.0
  S2-  S102  1  0.11447000  0.59236867  0.18574500  1.0
  S2-  S103  1  0.11447000  0.59236867  0.68574500  1.0
  S2-  S104  1  0.11447000  0.39236867  0.18574500  1.0
  S2-  S105  1  0.11447000  0.39236867  0.68574500  1.0
  S2-  S106  1  0.11447000  0.19236867  0.18574500  1.0
  S2-  S107  1  0.11447000  0.19236867  0.68574500  1.0
  S2-  S108  1  0.11447000  0.99236867  0.18574500  1.0
  S2-  S109  1  0.11447000  0.99236867  0.68574500  1.0
  S2-  S110  1  0.11447000  0.79236867  0.18574500  1.0
  S2-  S111  1  0.11447000  0.79236867  0.68574500  1.0
  S2-  S112  1  0.25000000  0.51666667  0.37500000  1.0
  S2-  S113  1  0.25000000  0.51666667  0.87500000  1.0
  S2-  S114  1  0.25000000  0.31666667  0.37500000  1.0
  S2-  S115  1  0.25000000  0.31666667  0.87500000  1.0
  S2-  S116  1  0.25000000  0.11666667  0.37500000  1.0
  S2-  S117  1  0.25000000  0.11666667  0.87500000  1.0
  S2-  S118  1  0.25000000  0.91666667  0.37500000  1.0
  S2-  S119  1  0.25000000  0.91666667  0.87500000  1.0
  S2-  S120  1  0.25000000  0.71666667  0.37500000  1.0
  S2-  S121  1  0.25000000  0.71666667  0.87500000  1.0
  I-  I122  1  0.00000000  0.66666667  0.00000000  1.0
  I-  I123  1  0.00000000  0.66666667  0.50000000  1.0
  I-  I124  1  0.00000000  0.46666667  0.00000000  1.0
  I-  I125  1  0.00000000  0.46666667  0.50000000  1.0
  I-  I126  1  0.00000000  0.26666667  0.00000000  1.0
  I-  I127  1  0.00000000  0.26666667  0.50000000  1.0
  I-  I128  1  0.00000000  0.06666667  0.00000000  1.0
  I-  I129  1  0.00000000  0.06666667  0.50000000  1.0
  I-  I130  1  0.00000000  0.86666667  0.00000000  1.0
  I-  I131  1  0.00000000  0.86666667  0.50000000  1.0
