# generated using pymatgen
data_Li31SnSb4(S5I)5
_symmetry_space_group_name_H-M   'P 1'
_cell_length_a   36.91769149
_cell_length_b   7.38353830
_cell_length_c   14.76707660
_cell_angle_alpha   60.00000000
_cell_angle_beta   60.00000000
_cell_angle_gamma   60.00000000
_symmetry_Int_Tables_number   1
_chemical_formula_structural   Li31SnSb4(S5I)5
_chemical_formula_sum   'Li62 Sn2 Sb8 S50 I10'
_cell_volume   2846.28640248
_cell_formula_units_Z   2
loop_
 _symmetry_equiv_pos_site_id
 _symmetry_equiv_pos_as_xyz
  1  'x, y, z'
loop_
 _atom_type_symbol
 _atom_type_oxidation_number
  Li+  1.0
  Sn4+  4.0
  Sb5+  5.0
  S2-  -2.0
  I-  -1.0
loop_
 _atom_site_type_symbol
 _atom_site_label
 _atom_site_symmetry_multiplicity
 _atom_site_fract_x
 _atom_site_fract_y
 _atom_site_fract_z
 _atom_site_occupancy
  Li+  Li0  1  0.19580000  0.52100000  0.48950000  1.0
  Li+  Li1  1  0.39580000  0.52100000  0.48950000  1.0
  Li+  Li2  1  0.59580000  0.52100000  0.48950000  1.0
  Li+  Li3  1  0.99580000  0.52100000  0.98950000  1.0
  Li+  Li4  1  0.70420000  0.97900000  0.26050000  1.0
  Li+  Li5  1  0.70420000  0.97900000  0.76050000  1.0
  Li+  Li6  1  0.90420000  0.97900000  0.48950000  1.0
  Li+  Li7  1  0.19580000  0.52100000  0.76050000  1.0
  Li+  Li8  1  0.59580000  0.52100000  0.76050000  1.0
  Li+  Li9  1  0.79580000  0.97900000  0.26050000  1.0
  Li+  Li10  1  0.10420000  0.52100000  0.48950000  1.0
  Li+  Li11  1  0.30420000  0.52100000  0.98950000  1.0
  Li+  Li12  1  0.70420000  0.52100000  0.48950000  1.0
  Li+  Li13  1  0.19524000  0.43980000  0.98810000  1.0
  Li+  Li14  1  0.79524000  0.43980000  0.48810000  1.0
  Li+  Li15  1  0.79524000  0.43980000  0.98810000  1.0
  Li+  Li16  1  0.12156000  0.97620000  0.71990000  1.0
  Li+  Li17  1  0.72156000  0.97620000  0.21990000  1.0
  Li+  Li18  1  0.92156000  0.97620000  0.21990000  1.0
  Li+  Li19  1  0.99524000  0.60780000  0.48810000  1.0
  Li+  Li20  1  0.28796000  0.97620000  0.30390000  1.0
  Li+  Li21  1  0.48796000  0.97620000  0.30390000  1.0
  Li+  Li22  1  0.48796000  0.97620000  0.80390000  1.0
  Li+  Li23  1  0.88796000  0.97620000  0.30390000  1.0
  Li+  Li24  1  0.88796000  0.97620000  0.80390000  1.0
  Li+  Li25  1  0.08796000  0.97620000  0.48810000  1.0
  Li+  Li26  1  0.08796000  0.97620000  0.98810000  1.0
  Li+  Li27  1  0.28796000  0.97620000  0.48810000  1.0
  Li+  Li28  1  0.28796000  0.97620000  0.98810000  1.0
  Li+  Li29  1  0.48796000  0.97620000  0.98810000  1.0
  Li+  Li30  1  0.19524000  0.43980000  0.30390000  1.0
  Li+  Li31  1  0.39524000  0.43980000  0.30390000  1.0
  Li+  Li32  1  0.39524000  0.43980000  0.80390000  1.0
  Li+  Li33  1  0.59524000  0.43980000  0.80390000  1.0
  Li+  Li34  1  0.12156000  0.97620000  0.48810000  1.0
  Li+  Li35  1  0.32156000  0.97620000  0.48810000  1.0
  Li+  Li36  1  0.32156000  0.97620000  0.98810000  1.0
  Li+  Li37  1  0.52156000  0.97620000  0.48810000  1.0
  Li+  Li38  1  0.72156000  0.97620000  0.48810000  1.0
  Li+  Li39  1  0.72156000  0.97620000  0.98810000  1.0
  Li+  Li40  1  0.92156000  0.97620000  0.98810000  1.0
  Li+  Li41  1  0.79524000  0.60780000  0.21990000  1.0
  Li+  Li42  1  0.79524000  0.60780000  0.71990000  1.0
  Li+  Li43  1  0.19524000  0.97620000  0.21990000  1.0
  Li+  Li44  1  0.39524000  0.97620000  0.21990000  1.0
  Li+  Li45  1  0.59524000  0.97620000  0.21990000  1.0
  Li+  Li46  1  0.79524000  0.97620000  0.21990000  1.0
  Li+  Li47  1  0.79524000  0.97620000  0.71990000  1.0
  Li+  Li48  1  0.28796000  0.60780000  0.98810000  1.0
  Li+  Li49  1  0.48796000  0.60780000  0.48810000  1.0
  Li+  Li50  1  0.48796000  0.60780000  0.98810000  1.0
  Li+  Li51  1  0.68796000  0.60780000  0.98810000  1.0
  Li+  Li52  1  0.88796000  0.60780000  0.48810000  1.0
  Li+  Li53  1  0.39524000  0.97620000  0.30390000  1.0
  Li+  Li54  1  0.39524000  0.97620000  0.80390000  1.0
  Li+  Li55  1  0.59524000  0.97620000  0.30390000  1.0
  Li+  Li56  1  0.79524000  0.97620000  0.80390000  1.0
  Li+  Li57  1  0.99524000  0.97620000  0.30390000  1.0
  Li+  Li58  1  0.99524000  0.97620000  0.80390000  1.0
  Li+  Li59  1  0.12156000  0.43980000  0.98810000  1.0
  Li+  Li60  1  0.72156000  0.43980000  0.48810000  1.0
  Li+  Li61  1  0.92156000  0.43980000  0.98810000  1.0
  Sn4+  Sn62  1  0.50000000  0.50000000  0.75000000  1.0
  Sn4+  Sn63  1  0.90000000  0.50000000  0.25000000  1.0
  Sb5+  Sb64  1  0.10000000  0.50000000  0.25000000  1.0
  Sb5+  Sb65  1  0.10000000  0.50000000  0.75000000  1.0
  Sb5+  Sb66  1  0.30000000  0.50000000  0.25000000  1.0
  Sb5+  Sb67  1  0.30000000  0.50000000  0.75000000  1.0
  Sb5+  Sb68  1  0.50000000  0.50000000  0.25000000  1.0
  Sb5+  Sb69  1  0.70000000  0.50000000  0.25000000  1.0
  Sb5+  Sb70  1  0.70000000  0.50000000  0.75000000  1.0
  Sb5+  Sb71  1  0.90000000  0.50000000  0.75000000  1.0
  S2-  S2  1  0.17710600  0.37149000  0.18574500  1.0
  S2-  S2  1  0.17710600  0.37149000  0.68574500  1.0
  S2-  S2  1  0.37710600  0.37149000  0.18574500  1.0
  S2-  S2  1  0.37710600  0.37149000  0.68574500  1.0
  S2-  S2  1  0.57710600  0.37149000  0.18574500  1.0
  S2-  S2  1  0.57710600  0.37149000  0.68574500  1.0
  S2-  S2  1  0.77710600  0.37149000  0.18574500  1.0
  S2-  S2  1  0.77710600  0.37149000  0.68574500  1.0
  S2-  S2  1  0.97710600  0.37149000  0.18574500  1.0
  S2-  S2  1  0.97710600  0.37149000  0.68574500  1.0
  S2-  S2  1  0.07429800  0.37149000  0.18574500  1.0
  S2-  S2  1  0.07429800  0.37149000  0.68574500  1.0
  S2-  S2  1  0.27429800  0.37149000  0.18574500  1.0
  S2-  S2  1  0.27429800  0.37149000  0.68574500  1.0
  S2-  S2  1  0.47429800  0.37149000  0.18574500  1.0
  S2-  S2  1  0.47429800  0.37149000  0.68574500  1.0
  S2-  S2  1  0.67429800  0.37149000  0.18574500  1.0
  S2-  S2  1  0.67429800  0.37149000  0.68574500  1.0
  S2-  S2  1  0.87429800  0.37149000  0.18574500  1.0
  S2-  S2  1  0.87429800  0.37149000  0.68574500  1.0
  S2-  S2  1  0.07429800  0.37149000  0.44276500  1.0
  S2-  S2  1  0.07429800  0.37149000  0.94276500  1.0
  S2-  S2  1  0.27429800  0.37149000  0.44276500  1.0
  S2-  S2  1  0.27429800  0.37149000  0.94276500  1.0
  S2-  S2  1  0.47429800  0.37149000  0.44276500  1.0
  S2-  S2  1  0.47429800  0.37149000  0.94276500  1.0
  S2-  S2  1  0.67429800  0.37149000  0.44276500  1.0
  S2-  S2  1  0.67429800  0.37149000  0.94276500  1.0
  S2-  S2  1  0.87429800  0.37149000  0.44276500  1.0
  S2-  S2  1  0.87429800  0.37149000  0.94276500  1.0
  S2-  S2  1  0.07429800  0.88553000  0.18574500  1.0
  S2-  S2  1  0.07429800  0.88553000  0.68574500  1.0
  S2-  S2  1  0.27429800  0.88553000  0.18574500  1.0
  S2-  S2  1  0.27429800  0.88553000  0.68574500  1.0
  S2-  S2  1  0.47429800  0.88553000  0.18574500  1.0
  S2-  S2  1  0.47429800  0.88553000  0.68574500  1.0
  S2-  S2  1  0.67429800  0.88553000  0.18574500  1.0
  S2-  S2  1  0.67429800  0.88553000  0.68574500  1.0
  S2-  S2  1  0.87429800  0.88553000  0.18574500  1.0
  S2-  S2  1  0.87429800  0.88553000  0.68574500  1.0
  S2-  S112  1  0.15000000  0.75000000  0.37500000  1.0
  S2-  S113  1  0.15000000  0.75000000  0.87500000  1.0
  S2-  S114  1  0.35000000  0.75000000  0.37500000  1.0
  S2-  S115  1  0.35000000  0.75000000  0.87500000  1.0
  S2-  S116  1  0.55000000  0.75000000  0.37500000  1.0
  S2-  S117  1  0.55000000  0.75000000  0.87500000  1.0
  S2-  S118  1  0.75000000  0.75000000  0.37500000  1.0
  S2-  S119  1  0.75000000  0.75000000  0.87500000  1.0
  S2-  S120  1  0.95000000  0.75000000  0.37500000  1.0
  S2-  S121  1  0.95000000  0.75000000  0.87500000  1.0
  I-  I122  1  0.00000000  0.00000000  0.00000000  1.0
  I-  I123  1  0.00000000  0.00000000  0.50000000  1.0
  I-  I124  1  0.20000000  0.00000000  0.00000000  1.0
  I-  I125  1  0.20000000  0.00000000  0.50000000  1.0
  I-  I126  1  0.40000000  0.00000000  0.00000000  1.0
  I-  I127  1  0.40000000  0.00000000  0.50000000  1.0
  I-  I128  1  0.60000000  0.00000000  1.00000000  1.0
  I-  I129  1  0.60000000  0.00000000  0.50000000  1.0
  I-  I130  1  0.80000000  0.00000000  0.00000000  1.0
  I-  I131  1  0.80000000  0.00000000  0.50000000  1.0
