# generated using pymatgen
data_Li6PS5I
_symmetry_space_group_name_H-M   'P 1'
_cell_length_a   14.33955984
_cell_length_b   14.33955984
_cell_length_c   14.33955984
_cell_angle_alpha   60.00000000
_cell_angle_beta   120.00000000
_cell_angle_gamma   120.00000000
_symmetry_Int_Tables_number   1
_chemical_formula_structural   Li6PS5I
_chemical_formula_sum   'Li48 P8 S40 I8'
_cell_volume   2084.93473199
_cell_formula_units_Z   8
loop_
 _symmetry_equiv_pos_site_id
 _symmetry_equiv_pos_as_xyz
  1  'x, y, z'
loop_
 _atom_type_symbol
 _atom_type_oxidation_number
  Li+  1.0
  P5+  5.0
  S2-  -2.0
  I-  -1.0
loop_
 _atom_site_type_symbol
 _atom_site_label
 _atom_site_symmetry_multiplicity
 _atom_site_fract_x
 _atom_site_fract_y
 _atom_site_fract_z
 _atom_site_occupancy
  Li+  Li0  1  0.24100000  0.75900000  0.24100000  1.0
  Li+  Li1  1  0.24100000  0.25900000  0.24100000  1.0
  Li+  Li2  1  0.74100000  0.75900000  0.24100000  1.0
  Li+  Li3  1  0.50900000  0.25900000  0.00900000  1.0
  Li+  Li4  1  0.24100000  0.49100000  0.24100000  1.0
  Li+  Li5  1  0.74100000  0.99100000  0.24100000  1.0
  Li+  Li6  1  0.00900000  0.75900000  0.74100000  1.0
  Li+  Li7  1  0.50900000  0.75900000  0.74100000  1.0
  Li+  Li8  1  0.50900000  0.49100000  0.50900000  1.0
  Li+  Li9  1  0.24236007  0.48903511  0.00896393  1.0
  Li+  Li10  1  0.19110000  0.71770000  0.73670000  1.0
  Li+  Li11  1  0.19110000  0.21770000  0.23670000  1.0
  Li+  Li12  1  0.69110000  0.21770000  0.73670000  1.0
  Li+  Li13  1  0.01330000  0.30890000  0.46770000  1.0
  Li+  Li14  1  0.01127337  0.30888633  0.96982460  1.0
  Li+  Li15  1  0.78230000  0.48670000  0.73670000  1.0
  Li+  Li16  1  0.28039196  0.81184353  0.73711734  1.0
  Li+  Li17  1  0.78230000  0.80890000  0.73670000  1.0
  Li+  Li18  1  0.01330000  0.21770000  0.73670000  1.0
  Li+  Li19  1  0.01330000  0.71770000  0.23670000  1.0
  Li+  Li20  1  0.51330000  0.21770000  0.73670000  1.0
  Li+  Li21  1  0.51330000  0.21770000  0.23670000  1.0
  Li+  Li22  1  0.00943204  0.80786019  0.73957877  1.0
  Li+  Li23  1  0.01330000  0.80890000  0.23670000  1.0
  Li+  Li24  1  0.01096869  0.31155140  0.23570738  1.0
  Li+  Li25  1  0.01330000  0.71770000  0.05890000  1.0
  Li+  Li26  1  0.51651814  0.21855256  0.55735132  1.0
  Li+  Li27  1  0.51330000  0.71770000  0.05890000  1.0
  Li+  Li28  1  0.01330000  0.98670000  0.05890000  1.0
  Li+  Li29  1  0.51330000  0.98670000  0.05890000  1.0
  Li+  Li30  1  0.19110000  0.98670000  0.73670000  1.0
  Li+  Li31  1  0.19110000  0.48670000  0.73670000  1.0
  Li+  Li32  1  0.19110000  0.98670000  0.23670000  1.0
  Li+  Li33  1  0.68693395  0.98295722  0.73720017  1.0
  Li+  Li34  1  0.01330000  0.98670000  0.46770000  1.0
  Li+  Li35  1  0.01330000  0.48670000  0.96770000  1.0
  Li+  Li36  1  0.51353796  0.98117203  0.46548177  1.0
  Li+  Li37  1  0.51330000  0.48670000  0.46770000  1.0
  Li+  Li38  1  0.51330000  0.98670000  0.96770000  1.0
  Li+  Li39  1  0.51330000  0.48670000  0.96770000  1.0
  Li+  Li40  1  0.28230000  0.98670000  0.55890000  1.0
  Li+  Li41  1  0.28230000  0.98670000  0.05890000  1.0
  Li+  Li42  1  0.78230000  0.98670000  0.55890000  1.0
  Li+  Li43  1  0.78421536  0.98517796  0.05997254  1.0
  Li+  Li44  1  0.19110000  0.98670000  0.46770000  1.0
  Li+  Li45  1  0.19110000  0.48670000  0.46770000  1.0
  Li+  Li46  1  0.69110000  0.48670000  0.46770000  1.0
  Li+  Li47  1  0.68587098  0.98490974  0.97032157  1.0
  P5+  P48  1  0.25000000  0.75000000  0.50000000  1.0
  P5+  P49  1  0.25298380  0.25313128  0.49957745  1.0
  P5+  P50  1  0.24554466  0.74861087  0.00038500  1.0
  P5+  P51  1  0.25022153  0.25014099  0.99830816  1.0
  P5+  P52  1  0.74935867  0.75275888  0.49356392  1.0
  P5+  P53  1  0.75357414  0.24644346  0.49436737  1.0
  P5+  P54  1  0.75000000  0.75000000  0.00000000  1.0
  P5+  P55  1  0.74716092  0.25132745  0.00336377  1.0
  S2-  S56  1  0.30811500  0.69188500  0.67434500  1.0
  S2-  S57  1  0.30811500  0.19188500  0.67434500  1.0
  S2-  S58  1  0.30811500  0.69188500  0.17434500  1.0
  S2-  S59  1  0.30811500  0.19188500  0.17434500  1.0
  S2-  S60  1  0.80811500  0.69188500  0.67434500  1.0
  S2-  S61  1  0.80811500  0.19188500  0.67434500  1.0
  S2-  S62  1  0.80811500  0.69188500  0.17434500  1.0
  S2-  S63  1  0.80811500  0.19188500  0.17434500  1.0
  S2-  S64  1  0.30811500  0.69188500  0.44188500  1.0
  S2-  S65  1  0.30811500  0.19188500  0.44188500  1.0
  S2-  S66  1  0.30811500  0.69188500  0.94188500  1.0
  S2-  S67  1  0.30802604  0.19518095  0.93628133  1.0
  S2-  S68  1  0.80811500  0.69188500  0.44188500  1.0
  S2-  S69  1  0.80811500  0.19188500  0.44188500  1.0
  S2-  S70  1  0.80811500  0.69188500  0.94188500  1.0
  S2-  S71  1  0.80891600  0.19007079  0.94315897  1.0
  S2-  S72  1  0.30776815  0.92331878  0.44273360  1.0
  S2-  S73  1  0.30811500  0.42434500  0.44188500  1.0
  S2-  S74  1  0.30387099  0.92732393  0.94249528  1.0
  S2-  S75  1  0.30811500  0.42434500  0.94188500  1.0
  S2-  S76  1  0.80811500  0.92434500  0.44188500  1.0
  S2-  S77  1  0.80811500  0.42434500  0.44188500  1.0
  S2-  S78  1  0.80811500  0.92434500  0.94188500  1.0
  S2-  S79  1  0.80811500  0.42434500  0.94188500  1.0
  S2-  S80  1  0.07565500  0.69188500  0.44188500  1.0
  S2-  S81  1  0.07893111  0.19499072  0.44205481  1.0
  S2-  S82  1  0.07565500  0.69188500  0.94188500  1.0
  S2-  S83  1  0.07565500  0.19188500  0.94188500  1.0
  S2-  S84  1  0.57565500  0.69188500  0.44188500  1.0
  S2-  S85  1  0.57565500  0.19188500  0.44188500  1.0
  S2-  S86  1  0.57565500  0.69188500  0.94188500  1.0
  S2-  S87  1  0.57565500  0.19188500  0.94188500  1.0
  S2-  S88  1  0.37500000  0.62500000  0.37500000  1.0
  S2-  S89  1  0.37311396  0.12334794  0.37643315  1.0
  S2-  S90  1  0.37441747  0.63123493  0.87624196  1.0
  S2-  S91  1  0.37500000  0.12500000  0.87500000  1.0
  S2-  S92  1  0.87793892  0.62127597  0.37829636  1.0
  S2-  S93  1  0.87500000  0.12500000  0.37500000  1.0
  S2-  S94  1  0.87500000  0.62500000  0.87500000  1.0
  S2-  S95  1  0.87500000  0.12500000  0.87500000  1.0
  I-  I96  1  0.00000000  0.00000000  0.75000000  1.0
  I-  I97  1  0.00000000  0.50000000  0.75000000  1.0
  I-  I98  1  0.99551759  0.99577586  0.25089109  1.0
  I-  I99  1  0.00000000  0.50000000  0.25000000  1.0
  I-  I100  1  0.50000000  0.00000000  0.75000000  1.0
  I-  I101  1  0.50000000  0.50000000  0.75000000  1.0
  I-  I102  1  0.50000000  0.00000000  0.25000000  1.0
  I-  I103  1  0.49906007  0.49680508  0.25069526  1.0
