# generated using pymatgen
data_LiGaGeO4
_symmetry_space_group_name_H-M   'P 1'
_cell_length_a   17.25085050
_cell_length_b   17.25085050
_cell_length_c   8.62542525
_cell_angle_alpha   107.82804683
_cell_angle_beta   107.82804683
_cell_angle_gamma   107.82804683
_symmetry_Int_Tables_number   1
_chemical_formula_structural   LiGaGeO4
_chemical_formula_sum   'Li24 Ga24 Ge24 O96'
_cell_volume   2087.53399998
_cell_formula_units_Z   24
loop_
 _symmetry_equiv_pos_site_id
 _symmetry_equiv_pos_as_xyz
  1  'x, y, z'
loop_
 _atom_type_symbol
 _atom_type_oxidation_number
  Li+  1.0
  Ga3+  3.0
  Ge4+  4.0
  O2-  -2.0
loop_
 _atom_site_type_symbol
 _atom_site_label
 _atom_site_symmetry_multiplicity
 _atom_site_fract_x
 _atom_site_fract_y
 _atom_site_fract_z
 _atom_site_occupancy
  Li+  Li1  1  0.10950000  0.02900000  0.46200000  1.0
  Li+  Li1  1  0.10950000  0.52900000  0.46200000  1.0
  Li+  Li1  1  0.60950000  0.02900000  0.46200000  1.0
  Li+  Li1  1  0.60950000  0.52900000  0.46200000  1.0
  Li+  Li1  1  0.02900000  0.23100000  0.21900000  1.0
  Li+  Li1  1  0.02900000  0.73100000  0.21900000  1.0
  Li+  Li1  1  0.52900000  0.23100000  0.21900000  1.0
  Li+  Li1  1  0.52900000  0.73100000  0.21900000  1.0
  Li+  Li1  1  0.23100000  0.10950000  0.05800000  1.0
  Li+  Li1  1  0.23100000  0.60950000  0.05800000  1.0
  Li+  Li1  1  0.73100000  0.10950000  0.05800000  1.0
  Li+  Li1  1  0.73100000  0.60950000  0.05800000  1.0
  Li+  Li1  1  0.39050000  0.47100000  0.53800000  1.0
  Li+  Li1  1  0.39050000  0.97100000  0.53800000  1.0
  Li+  Li1  1  0.89050000  0.47100000  0.53800000  1.0
  Li+  Li1  1  0.89050000  0.97100000  0.53800000  1.0
  Li+  Li1  1  0.47100000  0.26900000  0.78100000  1.0
  Li+  Li1  1  0.47100000  0.76900000  0.78100000  1.0
  Li+  Li1  1  0.97100000  0.26900000  0.78100000  1.0
  Li+  Li1  1  0.97100000  0.76900000  0.78100000  1.0
  Li+  Li1  1  0.26900000  0.39050000  0.94200000  1.0
  Li+  Li1  1  0.26900000  0.89050000  0.94200000  1.0
  Li+  Li1  1  0.76900000  0.39050000  0.94200000  1.0
  Li+  Li1  1  0.76900000  0.89050000  0.94200000  1.0
  Ga3+  Ga12  1  0.28300000  0.19450000  0.79600000  1.0
  Ga3+  Ga12  1  0.28300000  0.69450000  0.79600000  1.0
  Ga3+  Ga13  1  0.19450000  0.39800000  0.56600000  1.0
  Ga3+  Ga13  1  0.19450000  0.89800000  0.56600000  1.0
  Ga3+  Ga14  1  0.69450000  0.39800000  0.56600000  1.0
  Ga3+  Ga14  1  0.69450000  0.89800000  0.56600000  1.0
  Ga3+  Ga15  1  0.89800000  0.28300000  0.38900000  1.0
  Ga3+  Ga15  1  0.89800000  0.78300000  0.38900000  1.0
  Ga3+  Ga16  1  0.71700000  0.30550000  0.20400000  1.0
  Ga3+  Ga16  1  0.71700000  0.80550000  0.20400000  1.0
  Ga3+  Ga17  1  0.60200000  0.21700000  0.61100000  1.0
  Ga3+  Ga17  1  0.60200000  0.71700000  0.61100000  1.0
  Ga3+  Ga18  1  0.56650000  0.44900000  0.72300000  1.0
  Ga3+  Ga18  1  0.56650000  0.94900000  0.72300000  1.0
  Ga3+  Ga19  1  0.44900000  0.36150000  0.13300000  1.0
  Ga3+  Ga19  1  0.44900000  0.86150000  0.13300000  1.0
  Ga3+  Ga20  1  0.13850000  0.43350000  0.10200000  1.0
  Ga3+  Ga20  1  0.13850000  0.93350000  0.10200000  1.0
  Ga3+  Ga21  1  0.43350000  0.05100000  0.27700000  1.0
  Ga3+  Ga21  1  0.43350000  0.55100000  0.27700000  1.0
  Ga3+  Ga22  1  0.93350000  0.05100000  0.27700000  1.0
  Ga3+  Ga22  1  0.93350000  0.55100000  0.27700000  1.0
  Ga3+  Ga23  1  0.05100000  0.13850000  0.86700000  1.0
  Ga3+  Ga23  1  0.05100000  0.63850000  0.86700000  1.0
  Ge4+  Ge24  1  0.78300000  0.19450000  0.79600000  1.0
  Ge4+  Ge24  1  0.78300000  0.69450000  0.79600000  1.0
  Ge4+  Ge25  1  0.39800000  0.28300000  0.38900000  1.0
  Ge4+  Ge25  1  0.39800000  0.78300000  0.38900000  1.0
  Ge4+  Ge26  1  0.21700000  0.30550000  0.20400000  1.0
  Ge4+  Ge26  1  0.21700000  0.80550000  0.20400000  1.0
  Ge4+  Ge27  1  0.30550000  0.10200000  0.43400000  1.0
  Ge4+  Ge27  1  0.30550000  0.60200000  0.43400000  1.0
  Ge4+  Ge28  1  0.80550000  0.10200000  0.43400000  1.0
  Ge4+  Ge28  1  0.80550000  0.60200000  0.43400000  1.0
  Ge4+  Ge29  1  0.10200000  0.21700000  0.61100000  1.0
  Ge4+  Ge29  1  0.10200000  0.71700000  0.61100000  1.0
  Ge4+  Ge30  1  0.36150000  0.06650000  0.89800000  1.0
  Ge4+  Ge30  1  0.36150000  0.56650000  0.89800000  1.0
  Ge4+  Ge31  1  0.86150000  0.06650000  0.89800000  1.0
  Ge4+  Ge31  1  0.86150000  0.56650000  0.89800000  1.0
  Ge4+  Ge32  1  0.06650000  0.44900000  0.72300000  1.0
  Ge4+  Ge32  1  0.06650000  0.94900000  0.72300000  1.0
  Ge4+  Ge33  1  0.94900000  0.36150000  0.13300000  1.0
  Ge4+  Ge33  1  0.94900000  0.86150000  0.13300000  1.0
  Ge4+  Ge34  1  0.63850000  0.43350000  0.10200000  1.0
  Ge4+  Ge34  1  0.63850000  0.93350000  0.10200000  1.0
  Ge4+  Ge35  1  0.55100000  0.13850000  0.86700000  1.0
  Ge4+  Ge35  1  0.55100000  0.63850000  0.86700000  1.0
  O2-  O1  1  0.02400000  0.16000000  0.36500000  1.0
  O2-  O1  1  0.02400000  0.66000000  0.36500000  1.0
  O2-  O1  1  0.52400000  0.16000000  0.36500000  1.0
  O2-  O1  1  0.52400000  0.66000000  0.36500000  1.0
  O2-  O1  1  0.16000000  0.18250000  0.04800000  1.0
  O2-  O1  1  0.16000000  0.68250000  0.04800000  1.0
  O2-  O1  1  0.66000000  0.18250000  0.04800000  1.0
  O2-  O1  1  0.66000000  0.68250000  0.04800000  1.0
  O2-  O1  1  0.18250000  0.02400000  0.32000000  1.0
  O2-  O1  1  0.18250000  0.52400000  0.32000000  1.0
  O2-  O1  1  0.68250000  0.02400000  0.32000000  1.0
  O2-  O1  1  0.68250000  0.52400000  0.32000000  1.0
  O2-  O1  1  0.47600000  0.34000000  0.63500000  1.0
  O2-  O1  1  0.47600000  0.84000000  0.63500000  1.0
  O2-  O1  1  0.97600000  0.34000000  0.63500000  1.0
  O2-  O1  1  0.97600000  0.84000000  0.63500000  1.0
  O2-  O1  1  0.34000000  0.31750000  0.95200000  1.0
  O2-  O1  1  0.34000000  0.81750000  0.95200000  1.0
  O2-  O1  1  0.84000000  0.31750000  0.95200000  1.0
  O2-  O1  1  0.84000000  0.81750000  0.95200000  1.0
  O2-  O1  1  0.31750000  0.47600000  0.68000000  1.0
  O2-  O1  1  0.31750000  0.97600000  0.68000000  1.0
  O2-  O1  1  0.81750000  0.47600000  0.68000000  1.0
  O2-  O1  1  0.81750000  0.97600000  0.68000000  1.0
  O2-  O2  1  0.29900000  0.13000000  0.92600000  1.0
  O2-  O2  1  0.29900000  0.63000000  0.92600000  1.0
  O2-  O2  1  0.79900000  0.13000000  0.92600000  1.0
  O2-  O2  1  0.79900000  0.63000000  0.92600000  1.0
  O2-  O2  1  0.13000000  0.46300000  0.59800000  1.0
  O2-  O2  1  0.13000000  0.96300000  0.59800000  1.0
  O2-  O2  1  0.63000000  0.46300000  0.59800000  1.0
  O2-  O2  1  0.63000000  0.96300000  0.59800000  1.0
  O2-  O2  1  0.46300000  0.29900000  0.26000000  1.0
  O2-  O2  1  0.46300000  0.79900000  0.26000000  1.0
  O2-  O2  1  0.96300000  0.29900000  0.26000000  1.0
  O2-  O2  1  0.96300000  0.79900000  0.26000000  1.0
  O2-  O2  1  0.20100000  0.37000000  0.07400000  1.0
  O2-  O2  1  0.20100000  0.87000000  0.07400000  1.0
  O2-  O2  1  0.70100000  0.37000000  0.07400000  1.0
  O2-  O2  1  0.70100000  0.87000000  0.07400000  1.0
  O2-  O2  1  0.37000000  0.03700000  0.40200000  1.0
  O2-  O2  1  0.37000000  0.53700000  0.40200000  1.0
  O2-  O2  1  0.87000000  0.03700000  0.40200000  1.0
  O2-  O2  1  0.87000000  0.53700000  0.40200000  1.0
  O2-  O2  1  0.03700000  0.20100000  0.74000000  1.0
  O2-  O2  1  0.03700000  0.70100000  0.74000000  1.0
  O2-  O2  1  0.53700000  0.20100000  0.74000000  1.0
  O2-  O2  1  0.53700000  0.70100000  0.74000000  1.0
  O2-  O3  1  0.00650000  0.01800000  0.70800000  1.0
  O2-  O3  1  0.00650000  0.51800000  0.70800000  1.0
  O2-  O3  1  0.50650000  0.01800000  0.70800000  1.0
  O2-  O3  1  0.50650000  0.51800000  0.70800000  1.0
  O2-  O3  1  0.01800000  0.35400000  0.01300000  1.0
  O2-  O3  1  0.01800000  0.85400000  0.01300000  1.0
  O2-  O3  1  0.51800000  0.35400000  0.01300000  1.0
  O2-  O3  1  0.51800000  0.85400000  0.01300000  1.0
  O2-  O3  1  0.35400000  0.00650000  0.03600000  1.0
  O2-  O3  1  0.35400000  0.50650000  0.03600000  1.0
  O2-  O3  1  0.85400000  0.00650000  0.03600000  1.0
  O2-  O3  1  0.85400000  0.50650000  0.03600000  1.0
  O2-  O3  1  0.49350000  0.48200000  0.29200000  1.0
  O2-  O3  1  0.49350000  0.98200000  0.29200000  1.0
  O2-  O3  1  0.99350000  0.48200000  0.29200000  1.0
  O2-  O3  1  0.99350000  0.98200000  0.29200000  1.0
  O2-  O3  1  0.48200000  0.14600000  0.98700000  1.0
  O2-  O3  1  0.48200000  0.64600000  0.98700000  1.0
  O2-  O3  1  0.98200000  0.14600000  0.98700000  1.0
  O2-  O3  1  0.98200000  0.64600000  0.98700000  1.0
  O2-  O3  1  0.14600000  0.49350000  0.96400000  1.0
  O2-  O3  1  0.14600000  0.99350000  0.96400000  1.0
  O2-  O3  1  0.64600000  0.49350000  0.96400000  1.0
  O2-  O3  1  0.64600000  0.99350000  0.96400000  1.0
  O2-  O4  1  0.34100000  0.17850000  0.65500000  1.0
  O2-  O4  1  0.34100000  0.67850000  0.65500000  1.0
  O2-  O4  1  0.84100000  0.17850000  0.65500000  1.0
  O2-  O4  1  0.84100000  0.67850000  0.65500000  1.0
  O2-  O4  1  0.17850000  0.32750000  0.68200000  1.0
  O2-  O4  1  0.17850000  0.82750000  0.68200000  1.0
  O2-  O4  1  0.67850000  0.32750000  0.68200000  1.0
  O2-  O4  1  0.67850000  0.82750000  0.68200000  1.0
  O2-  O4  1  0.32750000  0.34100000  0.35700000  1.0
  O2-  O4  1  0.32750000  0.84100000  0.35700000  1.0
  O2-  O4  1  0.82750000  0.34100000  0.35700000  1.0
  O2-  O4  1  0.82750000  0.84100000  0.35700000  1.0
  O2-  O4  1  0.15900000  0.32150000  0.34500000  1.0
  O2-  O4  1  0.15900000  0.82150000  0.34500000  1.0
  O2-  O4  1  0.65900000  0.32150000  0.34500000  1.0
  O2-  O4  1  0.65900000  0.82150000  0.34500000  1.0
  O2-  O4  1  0.32150000  0.17250000  0.31800000  1.0
  O2-  O4  1  0.32150000  0.67250000  0.31800000  1.0
  O2-  O4  1  0.82150000  0.17250000  0.31800000  1.0
  O2-  O4  1  0.82150000  0.67250000  0.31800000  1.0
  O2-  O4  1  0.17250000  0.15900000  0.64300000  1.0
  O2-  O4  1  0.17250000  0.65900000  0.64300000  1.0
  O2-  O4  1  0.67250000  0.15900000  0.64300000  1.0
  O2-  O4  1  0.67250000  0.65900000  0.64300000  1.0
