# generated using pymatgen
data_Li5La3Ta2O12
_symmetry_space_group_name_H-M   'P 1'
_cell_length_a   11.09078897
_cell_length_b   11.09078897
_cell_length_c   22.18157794
_cell_angle_alpha   109.47122063
_cell_angle_beta   70.52877937
_cell_angle_gamma   70.52877937
_symmetry_Int_Tables_number   1
_chemical_formula_structural   Li5La3Ta2O12
_chemical_formula_sum   'Li40 La24 Ta16 O96'
_cell_volume   2100.36818126
_cell_formula_units_Z   8
loop_
 _symmetry_equiv_pos_site_id
 _symmetry_equiv_pos_as_xyz
  1  'x, y, z'
loop_
 _atom_type_symbol
 _atom_type_oxidation_number
  Li+  1.0
  La3+  3.0
  Ta5+  5.0
  O2-  -2.0
loop_
 _atom_site_type_symbol
 _atom_site_label
 _atom_site_symmetry_multiplicity
 _atom_site_fract_x
 _atom_site_fract_y
 _atom_site_fract_z
 _atom_site_occupancy
  Li+  Li0  1  0.25088744  0.55766925  0.47496311  1.0
  Li+  Li1  1  0.25000000  0.55760000  0.97120000  1.0
  Li+  Li2  1  0.69240000  0.75000000  0.59620000  1.0
  Li+  Li3  1  0.69240000  0.75000000  0.09620000  1.0
  Li+  Li4  1  0.75000000  0.80760000  0.34620000  1.0
  Li+  Li5  1  0.75000000  0.80760000  0.84620000  1.0
  Li+  Li6  1  0.94432692  0.80830443  0.55565388  1.0
  Li+  Li7  1  0.94368356  0.80887835  0.05678120  1.0
  Li+  Li8  1  0.39550000  0.27670000  0.25660000  1.0
  Li+  Li9  1  0.39729042  0.27932088  0.75833901  1.0
  Li+  Li10  1  0.26018454  0.21980223  0.66578294  1.0
  Li+  Li11  1  0.26350000  0.22330000  0.16390000  1.0
  Li+  Li12  1  0.22330000  0.67220000  0.63175000  1.0
  Li+  Li13  1  0.22329470  0.67221985  0.13261024  1.0
  Li+  Li14  1  0.51320000  0.39550000  0.36165000  1.0
  Li+  Li15  1  0.51320000  0.39550000  0.86165000  1.0
  Li+  Li16  1  0.32780000  0.40870000  0.69775000  1.0
  Li+  Li17  1  0.32151949  0.40864826  0.19786281  1.0
  Li+  Li18  1  0.22584759  0.10152277  0.50342416  1.0
  Li+  Li19  1  0.22330000  0.10450000  0.00660000  1.0
  Li+  Li20  1  0.87500000  0.87500000  0.37500000  1.0
  Li+  Li21  1  0.87518243  0.87746048  0.87472418  1.0
  Li+  Li22  1  0.62500000  0.62500000  0.62500000  1.0
  Li+  Li23  1  0.62500000  0.62500000  0.12500000  1.0
  Li+  Li24  1  0.75000000  0.37500000  0.31250000  1.0
  Li+  Li25  1  0.75000000  0.37500000  0.81250000  1.0
  Li+  Li26  1  0.24610789  0.12374687  0.43704403  1.0
  Li+  Li27  1  0.25000000  0.12500000  0.93750000  1.0
  Li+  Li28  1  0.12500000  0.12500000  0.62500000  1.0
  Li+  Li29  1  0.12500000  0.12500000  0.12500000  1.0
  Li+  Li30  1  0.37347686  0.37779375  0.37944067  1.0
  Li+  Li31  1  0.37500000  0.37500000  0.87500000  1.0
  Li+  Li32  1  0.87409446  0.24758365  0.44008267  1.0
  Li+  Li33  1  0.87712801  0.25150564  0.94005590  1.0
  Li+  Li34  1  0.62500000  0.75000000  0.31250000  1.0
  Li+  Li35  1  0.62500000  0.75000000  0.81250000  1.0
  Li+  Li36  1  0.25000000  0.62500000  0.68750000  1.0
  Li+  Li37  1  0.25000000  0.62500000  0.18750000  1.0
  Li+  Li38  1  0.75000000  0.87500000  0.56250000  1.0
  Li+  Li39  1  0.75156624  0.87573415  0.06220572  1.0
  La3+  La40  1  0.75000000  0.62500000  0.43750000  1.0
  La3+  La41  1  0.75000000  0.62500000  0.93750000  1.0
  La3+  La42  1  0.25000000  0.87500000  0.31250000  1.0
  La3+  La43  1  0.24708923  0.87440476  0.81076687  1.0
  La3+  La44  1  0.12500000  0.62500000  0.37500000  1.0
  La3+  La45  1  0.12500000  0.62500000  0.87500000  1.0
  La3+  La46  1  0.37500000  0.87500000  0.62500000  1.0
  La3+  La47  1  0.37500000  0.87500000  0.12500000  1.0
  La3+  La48  1  0.37500000  0.75000000  0.43750000  1.0
  La3+  La49  1  0.37130405  0.75151741  0.94139655  1.0
  La3+  La50  1  0.12500000  0.25000000  0.31250000  1.0
  La3+  La51  1  0.12500000  0.25000000  0.81250000  1.0
  La3+  La52  1  0.25000000  0.37500000  0.56250000  1.0
  La3+  La53  1  0.25184006  0.37440804  0.06318801  1.0
  La3+  La54  1  0.75000000  0.12500000  0.68750000  1.0
  La3+  La55  1  0.75000000  0.12500000  0.18750000  1.0
  La3+  La56  1  0.87500000  0.37500000  0.62500000  1.0
  La3+  La57  1  0.87408920  0.37673278  0.12453714  1.0
  La3+  La58  1  0.62500000  0.12500000  0.37500000  1.0
  La3+  La59  1  0.62500000  0.12500000  0.87500000  1.0
  La3+  La60  1  0.62500000  0.25000000  0.56250000  1.0
  La3+  La61  1  0.62500000  0.25000000  0.06250000  1.0
  La3+  La62  1  0.87434662  0.74876044  0.69151894  1.0
  La3+  La63  1  0.87500000  0.75000000  0.18750000  1.0
  Ta5+  Ta64  1  0.00000000  0.50000000  0.75000000  1.0
  Ta5+  Ta65  1  0.00202799  0.50093371  0.25285595  1.0
  Ta5+  Ta66  1  0.50000000  0.50000000  0.50000000  1.0
  Ta5+  Ta67  1  0.50026567  0.49935491  0.00349970  1.0
  Ta5+  Ta68  1  0.00000000  0.00000000  0.50000000  1.0
  Ta5+  Ta69  1  0.99691351  0.99895781  0.99722329  1.0
  Ta5+  Ta70  1  0.50000000  0.00000000  0.75000000  1.0
  Ta5+  Ta71  1  0.49794205  0.99667951  0.24409571  1.0
  Ta5+  Ta72  1  0.00000000  0.50000000  0.50000000  1.0
  Ta5+  Ta73  1  0.00090189  0.50028965  0.00201412  1.0
  Ta5+  Ta74  1  0.50000000  0.50000000  0.75000000  1.0
  Ta5+  Ta75  1  0.49805059  0.50020501  0.24624397  1.0
  Ta5+  Ta76  1  0.50000000  0.00000000  0.50000000  1.0
  Ta5+  Ta77  1  0.50000000  0.00000000  0.00000000  1.0
  Ta5+  Ta78  1  0.00000000  0.00000000  0.75000000  1.0
  Ta5+  Ta79  1  0.00015300  0.99864592  0.25064343  1.0
  O2-  O80  1  0.90670000  0.67401000  0.48929500  1.0
  O2-  O81  1  0.90670000  0.67401000  0.98929500  1.0
  O2-  O82  1  0.59675134  0.88269645  0.54232008  1.0
  O2-  O83  1  0.59330000  0.88529000  0.04035500  1.0
  O2-  O84  1  0.30458000  0.61471000  0.26070500  1.0
  O2-  O85  1  0.30458000  0.61471000  0.76070500  1.0
  O2-  O86  1  0.19542000  0.82599000  0.70964500  1.0
  O2-  O87  1  0.19542000  0.82599000  0.20964500  1.0
  O2-  O88  1  0.38529000  0.52141000  0.34771000  1.0
  O2-  O89  1  0.38529000  0.52141000  0.84771000  1.0
  O2-  O90  1  0.17401000  0.41929000  0.40229000  1.0
  O2-  O91  1  0.17401000  0.41929000  0.90229000  1.0
  O2-  O92  1  0.32599000  0.97859000  0.54665000  1.0
  O2-  O93  1  0.32677186  0.97827224  0.04686360  1.0
  O2-  O94  1  0.11471000  0.08071000  0.70335000  1.0
  O2-  O95  1  0.11471000  0.08071000  0.20335000  1.0
  O2-  O96  1  0.57736652  0.80211952  0.41306087  1.0
  O2-  O97  1  0.58071000  0.80458000  0.91299500  1.0
  O2-  O98  1  0.47859000  0.69542000  0.30735500  1.0
  O2-  O99  1  0.47859000  0.69542000  0.80735500  1.0
  O2-  O100  1  0.91929000  0.40670000  0.44264500  1.0
  O2-  O101  1  0.91869468  0.40604615  0.94604909  1.0
  O2-  O102  1  0.02141000  0.09330000  0.33700500  1.0
  O2-  O103  1  0.02141000  0.09330000  0.83700500  1.0
  O2-  O104  1  0.09330000  0.32599000  0.51070500  1.0
  O2-  O105  1  0.09330000  0.32599000  0.01070500  1.0
  O2-  O106  1  0.40670000  0.11471000  0.45964500  1.0
  O2-  O107  1  0.40670000  0.11471000  0.95964500  1.0
  O2-  O108  1  0.69542000  0.38529000  0.73929500  1.0
  O2-  O109  1  0.69555956  0.38703361  0.23894342  1.0
  O2-  O110  1  0.80458000  0.17401000  0.29035500  1.0
  O2-  O111  1  0.80458000  0.17401000  0.79035500  1.0
  O2-  O112  1  0.61471000  0.47859000  0.65229000  1.0
  O2-  O113  1  0.61471000  0.47859000  0.15229000  1.0
  O2-  O114  1  0.82272186  0.58104558  0.60113101  1.0
  O2-  O115  1  0.82599000  0.58071000  0.09771000  1.0
  O2-  O116  1  0.67401000  0.02141000  0.45335000  1.0
  O2-  O117  1  0.67401000  0.02141000  0.95335000  1.0
  O2-  O118  1  0.88529000  0.91929000  0.29665000  1.0
  O2-  O119  1  0.88529000  0.91929000  0.79665000  1.0
  O2-  O120  1  0.41546613  0.19631989  0.58746096  1.0
  O2-  O121  1  0.41929000  0.19542000  0.08700500  1.0
  O2-  O122  1  0.52141000  0.30458000  0.69264500  1.0
  O2-  O123  1  0.52141000  0.30458000  0.19264500  1.0
  O2-  O124  1  0.08618985  0.59689956  0.55602737  1.0
  O2-  O125  1  0.08071000  0.59330000  0.05735500  1.0
  O2-  O126  1  0.97859000  0.90670000  0.66299500  1.0
  O2-  O127  1  0.97859000  0.90670000  0.16299500  1.0
  O2-  O128  1  0.08071000  0.32599000  0.65229000  1.0
  O2-  O129  1  0.08071000  0.32599000  0.15229000  1.0
  O2-  O130  1  0.97859000  0.11471000  0.59771000  1.0
  O2-  O131  1  0.97578124  0.11223346  0.09671110  1.0
  O2-  O132  1  0.41929000  0.38529000  0.45335000  1.0
  O2-  O133  1  0.41929000  0.38529000  0.95335000  1.0
  O2-  O134  1  0.52168842  0.17230721  0.29416237  1.0
  O2-  O135  1  0.52377999  0.17223054  0.79389219  1.0
  O2-  O136  1  0.40670000  0.47859000  0.58700500  1.0
  O2-  O137  1  0.40670000  0.47859000  0.08700500  1.0
  O2-  O138  1  0.09330000  0.58071000  0.69264500  1.0
  O2-  O139  1  0.09012752  0.57965984  0.19173612  1.0
  O2-  O140  1  0.80458000  0.02141000  0.55735500  1.0
  O2-  O141  1  0.80458000  0.02141000  0.05735500  1.0
  O2-  O142  1  0.69542000  0.91929000  0.66299500  1.0
  O2-  O143  1  0.69542000  0.91929000  0.16299500  1.0
  O2-  O144  1  0.88529000  0.19542000  0.51070500  1.0
  O2-  O145  1  0.88529000  0.19542000  0.01070500  1.0
  O2-  O146  1  0.67541093  0.30558071  0.45746459  1.0
  O2-  O147  1  0.67401000  0.30458000  0.95964500  1.0
  O2-  O148  1  0.82595533  0.59429993  0.74302821  1.0
  O2-  O149  1  0.82599000  0.59330000  0.23929500  1.0
  O2-  O150  1  0.61471000  0.90670000  0.29035500  1.0
  O2-  O151  1  0.61101889  0.90222976  0.78763152  1.0
  O2-  O152  1  0.91929000  0.67401000  0.34771000  1.0
  O2-  O153  1  0.91929000  0.67401000  0.84771000  1.0
  O2-  O154  1  0.02141000  0.88529000  0.40229000  1.0
  O2-  O155  1  0.02139204  0.88566764  0.90548794  1.0
  O2-  O156  1  0.58071000  0.61471000  0.54665000  1.0
  O2-  O157  1  0.58071000  0.61471000  0.04665000  1.0
  O2-  O158  1  0.47859000  0.82599000  0.70335000  1.0
  O2-  O159  1  0.47859000  0.82599000  0.20335000  1.0
  O2-  O160  1  0.59330000  0.52141000  0.41299500  1.0
  O2-  O161  1  0.59330000  0.52141000  0.91299500  1.0
  O2-  O162  1  0.90837945  0.41355216  0.30529532  1.0
  O2-  O163  1  0.90670000  0.41929000  0.80735500  1.0
  O2-  O164  1  0.19542000  0.97859000  0.44264500  1.0
  O2-  O165  1  0.19542000  0.97859000  0.94264500  1.0
  O2-  O166  1  0.30458000  0.08071000  0.33700500  1.0
  O2-  O167  1  0.30458000  0.08071000  0.83700500  1.0
  O2-  O168  1  0.11428504  0.80274103  0.49153840  1.0
  O2-  O169  1  0.11471000  0.80458000  0.98929500  1.0
  O2-  O170  1  0.32599000  0.69542000  0.54035500  1.0
  O2-  O171  1  0.32599000  0.69542000  0.04035500  1.0
  O2-  O172  1  0.17401000  0.40670000  0.26070500  1.0
  O2-  O173  1  0.17401000  0.40670000  0.76070500  1.0
  O2-  O174  1  0.38529000  0.09330000  0.70964500  1.0
  O2-  O175  1  0.38529000  0.09330000  0.20964500  1.0
