# generated using pymatgen
data_Li5La3Ta2O12
_symmetry_space_group_name_H-M   'P 1'
_cell_length_a   21.96557279
_cell_length_b   10.98278639
_cell_length_c   10.98278639
_cell_angle_alpha   70.52877937
_cell_angle_beta   70.52877937
_cell_angle_gamma   109.47122063
_symmetry_Int_Tables_number   1
_chemical_formula_structural   Li5La3Ta2O12
_chemical_formula_sum   'Li40 La24 Ta16 O96'
_cell_volume   2039.60334601
_cell_formula_units_Z   8
loop_
 _symmetry_equiv_pos_site_id
 _symmetry_equiv_pos_as_xyz
  1  'x, y, z'
loop_
 _atom_type_symbol
 _atom_type_oxidation_number
  Li+  1.0
  La3+  3.0
  Ta5+  5.0
  O2-  -2.0
loop_
 _atom_site_type_symbol
 _atom_site_label
 _atom_site_symmetry_multiplicity
 _atom_site_fract_x
 _atom_site_fract_y
 _atom_site_fract_z
 _atom_site_occupancy
  Li+  Li0  1  0.72120000  0.41666667  0.44240000  1.0
  Li+  Li1  1  0.22120000  0.41666667  0.44240000  1.0
  Li+  Li2  1  0.84620000  0.97426667  0.25000000  1.0
  Li+  Li3  1  0.34620000  0.97426667  0.25000000  1.0
  Li+  Li4  1  0.59620000  0.91666667  0.19240000  1.0
  Li+  Li5  1  0.09620000  0.91666667  0.19240000  1.0
  Li+  Li6  1  0.80760000  0.72426667  0.19240000  1.0
  Li+  Li7  1  0.30760000  0.72426667  0.19240000  1.0
  Li+  Li8  1  0.50660000  0.27116667  0.72330000  1.0
  Li+  Li9  1  0.00660000  0.27116667  0.72330000  1.0
  Li+  Li10  1  0.91390000  0.40316667  0.77670000  1.0
  Li+  Li11  1  0.41390000  0.40316667  0.77670000  1.0
  Li+  Li12  1  0.88175000  0.44336667  0.32780000  1.0
  Li+  Li13  1  0.38175000  0.44336667  0.32780000  1.0
  Li+  Li14  1  0.61165000  0.15346667  0.60450000  1.0
  Li+  Li15  1  0.11165000  0.15346667  0.60450000  1.0
  Li+  Li16  1  0.94775000  0.33886667  0.59130000  1.0
  Li+  Li17  1  0.44775000  0.33886667  0.59130000  1.0
  Li+  Li18  1  0.75660000  0.44336667  0.89550000  1.0
  Li+  Li19  1  0.25660000  0.44336667  0.89550000  1.0
  Li+  Li20  1  0.62500000  0.79166667  0.12500000  1.0
  Li+  Li21  1  0.12500000  0.79166667  0.12500000  1.0
  Li+  Li22  1  0.87500000  0.04166667  0.37500000  1.0
  Li+  Li23  1  0.37500000  0.04166667  0.37500000  1.0
  Li+  Li24  1  0.56250000  0.91666667  0.62500000  1.0
  Li+  Li25  1  0.06250000  0.91666667  0.62500000  1.0
  Li+  Li26  1  0.68750000  0.41666667  0.87500000  1.0
  Li+  Li27  1  0.18750000  0.41666667  0.87500000  1.0
  Li+  Li28  1  0.87500000  0.54166667  0.87500000  1.0
  Li+  Li29  1  0.37500000  0.54166667  0.87500000  1.0
  Li+  Li30  1  0.62500000  0.29166667  0.62500000  1.0
  Li+  Li31  1  0.12500000  0.29166667  0.62500000  1.0
  Li+  Li32  1  0.68750000  0.79166667  0.75000000  1.0
  Li+  Li33  1  0.18750000  0.79166667  0.75000000  1.0
  Li+  Li34  1  0.56250000  0.04166667  0.25000000  1.0
  Li+  Li35  1  0.06250000  0.04166667  0.25000000  1.0
  Li+  Li36  1  0.93750000  0.41666667  0.37500000  1.0
  Li+  Li37  1  0.43750000  0.41666667  0.37500000  1.0
  Li+  Li38  1  0.81250000  0.91666667  0.12500000  1.0
  Li+  Li39  1  0.31250000  0.91666667  0.12500000  1.0
  La3+  La40  1  0.68750000  0.91666667  0.37500000  1.0
  La3+  La41  1  0.18750000  0.91666667  0.37500000  1.0
  La3+  La42  1  0.56250000  0.41666667  0.12500000  1.0
  La3+  La43  1  0.06250000  0.41666667  0.12500000  1.0
  La3+  La44  1  0.62500000  0.54166667  0.37500000  1.0
  La3+  La45  1  0.12500000  0.54166667  0.37500000  1.0
  La3+  La46  1  0.87500000  0.29166667  0.12500000  1.0
  La3+  La47  1  0.37500000  0.29166667  0.12500000  1.0
  La3+  La48  1  0.68750000  0.29166667  0.25000000  1.0
  La3+  La49  1  0.18750000  0.29166667  0.25000000  1.0
  La3+  La50  1  0.56250000  0.54166667  0.75000000  1.0
  La3+  La51  1  0.06250000  0.54166667  0.75000000  1.0
  La3+  La52  1  0.81250000  0.41666667  0.62500000  1.0
  La3+  La53  1  0.31250000  0.41666667  0.62500000  1.0
  La3+  La54  1  0.93750000  0.91666667  0.87500000  1.0
  La3+  La55  1  0.43750000  0.91666667  0.87500000  1.0
  La3+  La56  1  0.87500000  0.79166667  0.62500000  1.0
  La3+  La57  1  0.37500000  0.79166667  0.62500000  1.0
  La3+  La58  1  0.62500000  0.04166667  0.87500000  1.0
  La3+  La59  1  0.12500000  0.04166667  0.87500000  1.0
  La3+  La60  1  0.81250000  0.04166667  0.75000000  1.0
  La3+  La61  1  0.31250000  0.04166667  0.75000000  1.0
  La3+  La62  1  0.93750000  0.79166667  0.25000000  1.0
  La3+  La63  1  0.43750000  0.79166667  0.25000000  1.0
  Ta5+  Ta64  1  0.00000000  0.66666667  0.50000000  1.0
  Ta5+  Ta65  1  0.50000000  0.66666667  0.50000000  1.0
  Ta5+  Ta66  1  0.75000000  0.16666667  0.50000000  1.0
  Ta5+  Ta67  1  0.25000000  0.16666667  0.50000000  1.0
  Ta5+  Ta68  1  0.75000000  0.66666667  0.00000000  1.0
  Ta5+  Ta69  1  0.25000000  0.66666667  0.00000000  1.0
  Ta5+  Ta70  1  0.00000000  0.16666667  0.00000000  1.0
  Ta5+  Ta71  1  0.50000000  0.16666667  0.00000000  1.0
  Ta5+  Ta72  1  0.75000000  0.66666667  0.50000000  1.0
  Ta5+  Ta73  1  0.25000000  0.66666667  0.50000000  1.0
  Ta5+  Ta74  1  0.00000000  0.16666667  0.50000000  1.0
  Ta5+  Ta75  1  0.50000000  0.16666667  0.50000000  1.0
  Ta5+  Ta76  1  0.75000000  0.16666667  0.00000000  1.0
  Ta5+  Ta77  1  0.25000000  0.16666667  0.00000000  1.0
  Ta5+  Ta78  1  0.00000000  0.66666667  0.00000000  1.0
  Ta5+  Ta79  1  0.50000000  0.66666667  0.00000000  1.0
  O2-  O80  1  0.73929500  0.75996667  0.32599000  1.0
  O2-  O81  1  0.23929500  0.75996667  0.32599000  1.0
  O2-  O82  1  0.79035500  0.07336667  0.11471000  1.0
  O2-  O83  1  0.29035500  0.07336667  0.11471000  1.0
  O2-  O84  1  0.51070500  0.36208667  0.38529000  1.0
  O2-  O85  1  0.01070500  0.36208667  0.38529000  1.0
  O2-  O86  1  0.95964500  0.47124667  0.17401000  1.0
  O2-  O87  1  0.45964500  0.47124667  0.17401000  1.0
  O2-  O88  1  0.59771000  0.28137667  0.47859000  1.0
  O2-  O89  1  0.09771000  0.28137667  0.47859000  1.0
  O2-  O90  1  0.65229000  0.49265667  0.58071000  1.0
  O2-  O91  1  0.15229000  0.49265667  0.58071000  1.0
  O2-  O92  1  0.79665000  0.34067667  0.02141000  1.0
  O2-  O93  1  0.29665000  0.34067667  0.02141000  1.0
  O2-  O94  1  0.95335000  0.55195667  0.91929000  1.0
  O2-  O95  1  0.45335000  0.55195667  0.91929000  1.0
  O2-  O96  1  0.66299500  0.08595667  0.19542000  1.0
  O2-  O97  1  0.16299500  0.08595667  0.19542000  1.0
  O2-  O98  1  0.55735500  0.18807667  0.30458000  1.0
  O2-  O99  1  0.05735500  0.18807667  0.30458000  1.0
  O2-  O100  1  0.69264500  0.74737667  0.59330000  1.0
  O2-  O101  1  0.19264500  0.74737667  0.59330000  1.0
  O2-  O102  1  0.58700500  0.64525667  0.90670000  1.0
  O2-  O103  1  0.08700500  0.64525667  0.90670000  1.0
  O2-  O104  1  0.76070500  0.57336667  0.67401000  1.0
  O2-  O105  1  0.26070500  0.57336667  0.67401000  1.0
  O2-  O106  1  0.70964500  0.25996667  0.88529000  1.0
  O2-  O107  1  0.20964500  0.25996667  0.88529000  1.0
  O2-  O108  1  0.98929500  0.97124667  0.61471000  1.0
  O2-  O109  1  0.48929500  0.97124667  0.61471000  1.0
  O2-  O110  1  0.54035500  0.86208667  0.82599000  1.0
  O2-  O111  1  0.04035500  0.86208667  0.82599000  1.0
  O2-  O112  1  0.90229000  0.05195667  0.52141000  1.0
  O2-  O113  1  0.40229000  0.05195667  0.52141000  1.0
  O2-  O114  1  0.84771000  0.84067667  0.41929000  1.0
  O2-  O115  1  0.34771000  0.84067667  0.41929000  1.0
  O2-  O116  1  0.70335000  0.99265667  0.97859000  1.0
  O2-  O117  1  0.20335000  0.99265667  0.97859000  1.0
  O2-  O118  1  0.54665000  0.78137667  0.08071000  1.0
  O2-  O119  1  0.04665000  0.78137667  0.08071000  1.0
  O2-  O120  1  0.83700500  0.24737667  0.80458000  1.0
  O2-  O121  1  0.33700500  0.24737667  0.80458000  1.0
  O2-  O122  1  0.94264500  0.14525667  0.69542000  1.0
  O2-  O123  1  0.44264500  0.14525667  0.69542000  1.0
  O2-  O124  1  0.80735500  0.58595667  0.40670000  1.0
  O2-  O125  1  0.30735500  0.58595667  0.40670000  1.0
  O2-  O126  1  0.91299500  0.68807667  0.09330000  1.0
  O2-  O127  1  0.41299500  0.68807667  0.09330000  1.0
  O2-  O128  1  0.90229000  0.58595667  0.67401000  1.0
  O2-  O129  1  0.40229000  0.58595667  0.67401000  1.0
  O2-  O130  1  0.84771000  0.68807667  0.88529000  1.0
  O2-  O131  1  0.34771000  0.68807667  0.88529000  1.0
  O2-  O132  1  0.70335000  0.24737667  0.61471000  1.0
  O2-  O133  1  0.20335000  0.24737667  0.61471000  1.0
  O2-  O134  1  0.54665000  0.14525667  0.82599000  1.0
  O2-  O135  1  0.04665000  0.14525667  0.82599000  1.0
  O2-  O136  1  0.83700500  0.25996667  0.52141000  1.0
  O2-  O137  1  0.33700500  0.25996667  0.52141000  1.0
  O2-  O138  1  0.94264500  0.57336667  0.41929000  1.0
  O2-  O139  1  0.44264500  0.57336667  0.41929000  1.0
  O2-  O140  1  0.80735500  0.86208667  0.97859000  1.0
  O2-  O141  1  0.30735500  0.86208667  0.97859000  1.0
  O2-  O142  1  0.91299500  0.97124667  0.08071000  1.0
  O2-  O143  1  0.41299500  0.97124667  0.08071000  1.0
  O2-  O144  1  0.76070500  0.78137667  0.80458000  1.0
  O2-  O145  1  0.26070500  0.78137667  0.80458000  1.0
  O2-  O146  1  0.70964500  0.99265667  0.69542000  1.0
  O2-  O147  1  0.20964500  0.99265667  0.69542000  1.0
  O2-  O148  1  0.98929500  0.84067667  0.40670000  1.0
  O2-  O149  1  0.48929500  0.84067667  0.40670000  1.0
  O2-  O150  1  0.54035500  0.05195667  0.09330000  1.0
  O2-  O151  1  0.04035500  0.05195667  0.09330000  1.0
  O2-  O152  1  0.59771000  0.74737667  0.32599000  1.0
  O2-  O153  1  0.09771000  0.74737667  0.32599000  1.0
  O2-  O154  1  0.65229000  0.64525667  0.11471000  1.0
  O2-  O155  1  0.15229000  0.64525667  0.11471000  1.0
  O2-  O156  1  0.79665000  0.08595667  0.38529000  1.0
  O2-  O157  1  0.29665000  0.08595667  0.38529000  1.0
  O2-  O158  1  0.95335000  0.18807667  0.17401000  1.0
  O2-  O159  1  0.45335000  0.18807667  0.17401000  1.0
  O2-  O160  1  0.66299500  0.07336667  0.47859000  1.0
  O2-  O161  1  0.16299500  0.07336667  0.47859000  1.0
  O2-  O162  1  0.55735500  0.75996667  0.58071000  1.0
  O2-  O163  1  0.05735500  0.75996667  0.58071000  1.0
  O2-  O164  1  0.69264500  0.47124667  0.02141000  1.0
  O2-  O165  1  0.19264500  0.47124667  0.02141000  1.0
  O2-  O166  1  0.58700500  0.36208667  0.91929000  1.0
  O2-  O167  1  0.08700500  0.36208667  0.91929000  1.0
  O2-  O168  1  0.73929500  0.55195667  0.19542000  1.0
  O2-  O169  1  0.23929500  0.55195667  0.19542000  1.0
  O2-  O170  1  0.79035500  0.34067667  0.30458000  1.0
  O2-  O171  1  0.29035500  0.34067667  0.30458000  1.0
  O2-  O172  1  0.51070500  0.49265667  0.59330000  1.0
  O2-  O173  1  0.01070500  0.49265667  0.59330000  1.0
  O2-  O174  1  0.95964500  0.28137667  0.90670000  1.0
  O2-  O175  1  0.45964500  0.28137667  0.90670000  1.0
