# generated using pymatgen
data_Li5La3Ta2O12
_symmetry_space_group_name_H-M   'P 1'
_cell_length_a   11.09078897
_cell_length_b   22.18157794
_cell_length_c   11.09078897
_cell_angle_alpha   109.47122063
_cell_angle_beta   109.47122063
_cell_angle_gamma   109.47122063
_symmetry_Int_Tables_number   1
_chemical_formula_structural   Li5La3Ta2O12
_chemical_formula_sum   'Li40 La24 Ta16 O96'
_cell_volume   2100.36818126
_cell_formula_units_Z   8
loop_
 _symmetry_equiv_pos_site_id
 _symmetry_equiv_pos_as_xyz
  1  'x, y, z'
loop_
 _atom_type_symbol
 _atom_type_oxidation_number
  Li+  1.0
  La3+  3.0
  Ta5+  5.0
  O2-  -2.0
loop_
 _atom_site_type_symbol
 _atom_site_label
 _atom_site_symmetry_multiplicity
 _atom_site_fract_x
 _atom_site_fract_y
 _atom_site_fract_z
 _atom_site_occupancy
  Li+  Li0  1  0.25000000  0.27880000  0.44240000  1.0
  Li+  Li0  1  0.25000000  0.77880000  0.44240000  1.0
  Li+  Li1  1  0.69240000  0.15380000  0.25000000  1.0
  Li+  Li1  1  0.69240000  0.65380000  0.25000000  1.0
  Li+  Li2  1  0.75000000  0.40380000  0.19240000  1.0
  Li+  Li2  1  0.75000000  0.90380000  0.19240000  1.0
  Li+  Li3  1  0.94240000  0.19240000  0.19240000  1.0
  Li+  Li3  1  0.94240000  0.69240000  0.19240000  1.0
  Li+  Li4  1  0.39550000  0.49340000  0.72330000  1.0
  Li+  Li4  1  0.39550000  0.99340000  0.72330000  1.0
  Li+  Li5  1  0.26350000  0.08610000  0.77670000  1.0
  Li+  Li5  1  0.26350000  0.58610000  0.77670000  1.0
  Li+  Li6  1  0.22330000  0.11825000  0.32780000  1.0
  Li+  Li6  1  0.22330000  0.61825000  0.32780000  1.0
  Li+  Li7  1  0.51320000  0.38835000  0.60450000  1.0
  Li+  Li7  1  0.51320000  0.88835000  0.60450000  1.0
  Li+  Li8  1  0.32780000  0.05225000  0.59130000  1.0
  Li+  Li8  1  0.32780000  0.55225000  0.59130000  1.0
  Li+  Li9  1  0.22330000  0.24340000  0.89550000  1.0
  Li+  Li9  1  0.22330000  0.74340000  0.89550000  1.0
  Li+  Li10  1  0.87500000  0.37500000  0.12500000  1.0
  Li+  Li10  1  0.87500000  0.87500000  0.12500000  1.0
  Li+  Li11  1  0.62500000  0.12500000  0.37500000  1.0
  Li+  Li11  1  0.62500000  0.62500000  0.37500000  1.0
  Li+  Li12  1  0.75000000  0.43750000  0.62500000  1.0
  Li+  Li12  1  0.75000000  0.93750000  0.62500000  1.0
  Li+  Li13  1  0.25000000  0.31250000  0.87500000  1.0
  Li+  Li13  1  0.25000000  0.81250000  0.87500000  1.0
  Li+  Li14  1  0.12500000  0.12500000  0.87500000  1.0
  Li+  Li14  1  0.12500000  0.62500000  0.87500000  1.0
  Li+  Li15  1  0.37500000  0.37500000  0.62500000  1.0
  Li+  Li15  1  0.37500000  0.87500000  0.62500000  1.0
  Li+  Li16  1  0.87500000  0.31250000  0.75000000  1.0
  Li+  Li16  1  0.87500000  0.81250000  0.75000000  1.0
  Li+  Li17  1  0.62500000  0.43750000  0.25000000  1.0
  Li+  Li17  1  0.62500000  0.93750000  0.25000000  1.0
  Li+  Li18  1  0.25000000  0.06250000  0.37500000  1.0
  Li+  Li18  1  0.25000000  0.56250000  0.37500000  1.0
  Li+  Li19  1  0.75000000  0.18750000  0.12500000  1.0
  Li+  Li19  1  0.75000000  0.68750000  0.12500000  1.0
  La3+  La1  1  0.75000000  0.31250000  0.37500000  1.0
  La3+  La1  1  0.75000000  0.81250000  0.37500000  1.0
  La3+  La1  1  0.25000000  0.43750000  0.12500000  1.0
  La3+  La1  1  0.25000000  0.93750000  0.12500000  1.0
  La3+  La1  1  0.12500000  0.37500000  0.37500000  1.0
  La3+  La1  1  0.12500000  0.87500000  0.37500000  1.0
  La3+  La1  1  0.37500000  0.12500000  0.12500000  1.0
  La3+  La1  1  0.37500000  0.62500000  0.12500000  1.0
  La3+  La1  1  0.37500000  0.31250000  0.25000000  1.0
  La3+  La1  1  0.37500000  0.81250000  0.25000000  1.0
  La3+  La1  1  0.12500000  0.43750000  0.75000000  1.0
  La3+  La1  1  0.12500000  0.93750000  0.75000000  1.0
  La3+  La1  1  0.25000000  0.18750000  0.62500000  1.0
  La3+  La1  1  0.25000000  0.68750000  0.62500000  1.0
  La3+  La1  1  0.75000000  0.06250000  0.87500000  1.0
  La3+  La1  1  0.75000000  0.56250000  0.87500000  1.0
  La3+  La1  1  0.87500000  0.12500000  0.62500000  1.0
  La3+  La1  1  0.87500000  0.62500000  0.62500000  1.0
  La3+  La1  1  0.62500000  0.37500000  0.87500000  1.0
  La3+  La1  1  0.62500000  0.87500000  0.87500000  1.0
  La3+  La1  1  0.62500000  0.18750000  0.75000000  1.0
  La3+  La1  1  0.62500000  0.68750000  0.75000000  1.0
  La3+  La1  1  0.87500000  0.06250000  0.25000000  1.0
  La3+  La1  1  0.87500000  0.56250000  0.25000000  1.0
  Ta5+  Ta1  1  0.00000000  0.00000000  0.50000000  1.0
  Ta5+  Ta1  1  0.00000000  0.50000000  0.50000000  1.0
  Ta5+  Ta1  1  0.50000000  0.25000000  0.50000000  1.0
  Ta5+  Ta1  1  0.50000000  0.75000000  0.50000000  1.0
  Ta5+  Ta1  1  0.00000000  0.25000000  0.00000000  1.0
  Ta5+  Ta1  1  0.00000000  0.75000000  0.00000000  1.0
  Ta5+  Ta1  1  0.50000000  0.00000000  0.00000000  1.0
  Ta5+  Ta1  1  0.50000000  0.50000000  0.00000000  1.0
  Ta5+  Ta1  1  0.00000000  0.25000000  0.50000000  1.0
  Ta5+  Ta1  1  0.00000000  0.75000000  0.50000000  1.0
  Ta5+  Ta1  1  0.50000000  0.00000000  0.50000000  1.0
  Ta5+  Ta1  1  0.50000000  0.50000000  0.50000000  1.0
  Ta5+  Ta1  1  0.50000000  0.25000000  0.00000000  1.0
  Ta5+  Ta1  1  0.50000000  0.75000000  0.00000000  1.0
  Ta5+  Ta1  1  0.00000000  0.00000000  0.00000000  1.0
  Ta5+  Ta1  1  0.00000000  0.50000000  0.00000000  1.0
  O2-  O1  1  0.90670000  0.26070500  0.32599000  1.0
  O2-  O1  1  0.90670000  0.76070500  0.32599000  1.0
  O2-  O1  1  0.59330000  0.20964500  0.11471000  1.0
  O2-  O1  1  0.59330000  0.70964500  0.11471000  1.0
  O2-  O1  1  0.30458000  0.48929500  0.38529000  1.0
  O2-  O1  1  0.30458000  0.98929500  0.38529000  1.0
  O2-  O1  1  0.19542000  0.04035500  0.17401000  1.0
  O2-  O1  1  0.19542000  0.54035500  0.17401000  1.0
  O2-  O1  1  0.38529000  0.40229000  0.47859000  1.0
  O2-  O1  1  0.38529000  0.90229000  0.47859000  1.0
  O2-  O1  1  0.17401000  0.34771000  0.58071000  1.0
  O2-  O1  1  0.17401000  0.84771000  0.58071000  1.0
  O2-  O1  1  0.32599000  0.20335000  0.02141000  1.0
  O2-  O1  1  0.32599000  0.70335000  0.02141000  1.0
  O2-  O1  1  0.11471000  0.04665000  0.91929000  1.0
  O2-  O1  1  0.11471000  0.54665000  0.91929000  1.0
  O2-  O1  1  0.58071000  0.33700500  0.19542000  1.0
  O2-  O1  1  0.58071000  0.83700500  0.19542000  1.0
  O2-  O1  1  0.47859000  0.44264500  0.30458000  1.0
  O2-  O1  1  0.47859000  0.94264500  0.30458000  1.0
  O2-  O1  1  0.91929000  0.30735500  0.59330000  1.0
  O2-  O1  1  0.91929000  0.80735500  0.59330000  1.0
  O2-  O1  1  0.02141000  0.41299500  0.90670000  1.0
  O2-  O1  1  0.02141000  0.91299500  0.90670000  1.0
  O2-  O1  1  0.09330000  0.23929500  0.67401000  1.0
  O2-  O1  1  0.09330000  0.73929500  0.67401000  1.0
  O2-  O1  1  0.40670000  0.29035500  0.88529000  1.0
  O2-  O1  1  0.40670000  0.79035500  0.88529000  1.0
  O2-  O1  1  0.69542000  0.01070500  0.61471000  1.0
  O2-  O1  1  0.69542000  0.51070500  0.61471000  1.0
  O2-  O1  1  0.80458000  0.45964500  0.82599000  1.0
  O2-  O1  1  0.80458000  0.95964500  0.82599000  1.0
  O2-  O1  1  0.61471000  0.09771000  0.52141000  1.0
  O2-  O1  1  0.61471000  0.59771000  0.52141000  1.0
  O2-  O1  1  0.82599000  0.15229000  0.41929000  1.0
  O2-  O1  1  0.82599000  0.65229000  0.41929000  1.0
  O2-  O1  1  0.67401000  0.29665000  0.97859000  1.0
  O2-  O1  1  0.67401000  0.79665000  0.97859000  1.0
  O2-  O1  1  0.88529000  0.45335000  0.08071000  1.0
  O2-  O1  1  0.88529000  0.95335000  0.08071000  1.0
  O2-  O1  1  0.41929000  0.16299500  0.80458000  1.0
  O2-  O1  1  0.41929000  0.66299500  0.80458000  1.0
  O2-  O1  1  0.52141000  0.05735500  0.69542000  1.0
  O2-  O1  1  0.52141000  0.55735500  0.69542000  1.0
  O2-  O1  1  0.08071000  0.19264500  0.40670000  1.0
  O2-  O1  1  0.08071000  0.69264500  0.40670000  1.0
  O2-  O1  1  0.97859000  0.08700500  0.09330000  1.0
  O2-  O1  1  0.97859000  0.58700500  0.09330000  1.0
  O2-  O1  1  0.08071000  0.09771000  0.67401000  1.0
  O2-  O1  1  0.08071000  0.59771000  0.67401000  1.0
  O2-  O1  1  0.97859000  0.15229000  0.88529000  1.0
  O2-  O1  1  0.97859000  0.65229000  0.88529000  1.0
  O2-  O1  1  0.41929000  0.29665000  0.61471000  1.0
  O2-  O1  1  0.41929000  0.79665000  0.61471000  1.0
  O2-  O1  1  0.52141000  0.45335000  0.82599000  1.0
  O2-  O1  1  0.52141000  0.95335000  0.82599000  1.0
  O2-  O1  1  0.40670000  0.16299500  0.52141000  1.0
  O2-  O1  1  0.40670000  0.66299500  0.52141000  1.0
  O2-  O1  1  0.09330000  0.05735500  0.41929000  1.0
  O2-  O1  1  0.09330000  0.55735500  0.41929000  1.0
  O2-  O1  1  0.80458000  0.19264500  0.97859000  1.0
  O2-  O1  1  0.80458000  0.69264500  0.97859000  1.0
  O2-  O1  1  0.69542000  0.08700500  0.08071000  1.0
  O2-  O1  1  0.69542000  0.58700500  0.08071000  1.0
  O2-  O1  1  0.88529000  0.23929500  0.80458000  1.0
  O2-  O1  1  0.88529000  0.73929500  0.80458000  1.0
  O2-  O1  1  0.67401000  0.29035500  0.69542000  1.0
  O2-  O1  1  0.67401000  0.79035500  0.69542000  1.0
  O2-  O1  1  0.82599000  0.01070500  0.40670000  1.0
  O2-  O1  1  0.82599000  0.51070500  0.40670000  1.0
  O2-  O1  1  0.61471000  0.45964500  0.09330000  1.0
  O2-  O1  1  0.61471000  0.95964500  0.09330000  1.0
  O2-  O1  1  0.91929000  0.40229000  0.32599000  1.0
  O2-  O1  1  0.91929000  0.90229000  0.32599000  1.0
  O2-  O1  1  0.02141000  0.34771000  0.11471000  1.0
  O2-  O1  1  0.02141000  0.84771000  0.11471000  1.0
  O2-  O1  1  0.58071000  0.20335000  0.38529000  1.0
  O2-  O1  1  0.58071000  0.70335000  0.38529000  1.0
  O2-  O1  1  0.47859000  0.04665000  0.17401000  1.0
  O2-  O1  1  0.47859000  0.54665000  0.17401000  1.0
  O2-  O1  1  0.59330000  0.33700500  0.47859000  1.0
  O2-  O1  1  0.59330000  0.83700500  0.47859000  1.0
  O2-  O1  1  0.90670000  0.44264500  0.58071000  1.0
  O2-  O1  1  0.90670000  0.94264500  0.58071000  1.0
  O2-  O1  1  0.19542000  0.30735500  0.02141000  1.0
  O2-  O1  1  0.19542000  0.80735500  0.02141000  1.0
  O2-  O1  1  0.30458000  0.41299500  0.91929000  1.0
  O2-  O1  1  0.30458000  0.91299500  0.91929000  1.0
  O2-  O1  1  0.11471000  0.26070500  0.19542000  1.0
  O2-  O1  1  0.11471000  0.76070500  0.19542000  1.0
  O2-  O1  1  0.32599000  0.20964500  0.30458000  1.0
  O2-  O1  1  0.32599000  0.70964500  0.30458000  1.0
  O2-  O1  1  0.17401000  0.48929500  0.59330000  1.0
  O2-  O1  1  0.17401000  0.98929500  0.59330000  1.0
  O2-  O1  1  0.38529000  0.04035500  0.90670000  1.0
  O2-  O1  1  0.38529000  0.54035500  0.90670000  1.0
