# generated using pymatgen
data_Li4Zn(PO4)2
_symmetry_space_group_name_H-M   'P 1'
_cell_length_a   10.00232000
_cell_length_b   19.50630000
_cell_length_c   10.29750000
_cell_angle_alpha   90.00000000
_cell_angle_beta   90.00000000
_cell_angle_gamma   90.00000000
_symmetry_Int_Tables_number   1
_chemical_formula_structural   Li4Zn(PO4)2
_chemical_formula_sum   'Li48 Zn12 P24 O96'
_cell_volume   2009.12725191
_cell_formula_units_Z   12
loop_
 _symmetry_equiv_pos_site_id
 _symmetry_equiv_pos_as_xyz
  1  'x, y, z'
loop_
 _atom_type_symbol
 _atom_type_oxidation_number
  Li+  1.0
  Zn2+  2.0
  P5+  5.0
  O2-  -2.0
loop_
 _atom_site_type_symbol
 _atom_site_label
 _atom_site_symmetry_multiplicity
 _atom_site_fract_x
 _atom_site_fract_y
 _atom_site_fract_z
 _atom_site_occupancy
  Li+  Li0  1  0.11000000  0.25000000  0.07930000  1.0
  Li+  Li0  1  0.11000000  0.58333333  0.07930000  1.0
  Li+  Li0  1  0.11000000  0.91666667  0.07930000  1.0
  Li+  Li1  1  0.36000000  0.08333333  0.42070000  1.0
  Li+  Li1  1  0.36000000  0.41666667  0.42070000  1.0
  Li+  Li1  1  0.36000000  0.75000000  0.42070000  1.0
  Li+  Li2  1  0.39000000  0.08333333  0.92070000  1.0
  Li+  Li2  1  0.39000000  0.41666667  0.92070000  1.0
  Li+  Li2  1  0.39000000  0.75000000  0.92070000  1.0
  Li+  Li3  1  0.89000000  0.08333333  0.92070000  1.0
  Li+  Li3  1  0.89000000  0.41666667  0.92070000  1.0
  Li+  Li3  1  0.89000000  0.75000000  0.92070000  1.0
  Li+  Li4  1  0.15370000  0.16683333  0.34540000  1.0
  Li+  Li4  1  0.15370000  0.50016667  0.34540000  1.0
  Li+  Li4  1  0.15370000  0.83350000  0.34540000  1.0
  Li+  Li5  1  0.09630000  0.33316667  0.84540000  1.0
  Li+  Li5  1  0.09630000  0.66650000  0.84540000  1.0
  Li+  Li5  1  0.09630000  0.99983333  0.84540000  1.0
  Li+  Li6  1  0.59630000  0.33316667  0.84540000  1.0
  Li+  Li6  1  0.59630000  0.66650000  0.84540000  1.0
  Li+  Li6  1  0.59630000  0.99983333  0.84540000  1.0
  Li+  Li7  1  0.34630000  0.00016667  0.65460000  1.0
  Li+  Li7  1  0.34630000  0.33350000  0.65460000  1.0
  Li+  Li7  1  0.34630000  0.66683333  0.65460000  1.0
  Li+  Li8  1  0.40370000  0.16650000  0.15460000  1.0
  Li+  Li8  1  0.40370000  0.49983333  0.15460000  1.0
  Li+  Li8  1  0.40370000  0.83316667  0.15460000  1.0
  Li+  Li9  1  0.90370000  0.16650000  0.15460000  1.0
  Li+  Li9  1  0.90370000  0.49983333  0.15460000  1.0
  Li+  Li9  1  0.90370000  0.83316667  0.15460000  1.0
  Li+  Li10  1  0.34630000  0.16650000  0.65460000  1.0
  Li+  Li10  1  0.34630000  0.49983333  0.65460000  1.0
  Li+  Li10  1  0.34630000  0.83316667  0.65460000  1.0
  Li+  Li11  1  0.84630000  0.16650000  0.65460000  1.0
  Li+  Li11  1  0.84630000  0.49983333  0.65460000  1.0
  Li+  Li11  1  0.84630000  0.83316667  0.65460000  1.0
  Li+  Li12  1  0.40370000  0.00016667  0.15460000  1.0
  Li+  Li12  1  0.40370000  0.33350000  0.15460000  1.0
  Li+  Li12  1  0.40370000  0.66683333  0.15460000  1.0
  Li+  Li13  1  0.90370000  0.00016667  0.15460000  1.0
  Li+  Li13  1  0.90370000  0.33350000  0.15460000  1.0
  Li+  Li13  1  0.90370000  0.66683333  0.15460000  1.0
  Li+  Li14  1  0.65370000  0.33316667  0.34540000  1.0
  Li+  Li14  1  0.65370000  0.66650000  0.34540000  1.0
  Li+  Li14  1  0.65370000  0.99983333  0.34540000  1.0
  Li+  Li15  1  0.09630000  0.16683333  0.84540000  1.0
  Li+  Li15  1  0.09630000  0.50016667  0.84540000  1.0
  Li+  Li15  1  0.09630000  0.83350000  0.84540000  1.0
  Zn2+  Zn16  1  0.65370000  0.16683333  0.34540000  1.0
  Zn2+  Zn16  1  0.65370000  0.50016667  0.34540000  1.0
  Zn2+  Zn16  1  0.65370000  0.83350000  0.34540000  1.0
  Zn2+  Zn17  1  0.84630000  0.00016667  0.65460000  1.0
  Zn2+  Zn17  1  0.84630000  0.33350000  0.65460000  1.0
  Zn2+  Zn17  1  0.84630000  0.66683333  0.65460000  1.0
  Zn2+  Zn18  1  0.15370000  0.33316667  0.34540000  1.0
  Zn2+  Zn18  1  0.15370000  0.66650000  0.34540000  1.0
  Zn2+  Zn18  1  0.15370000  0.99983333  0.34540000  1.0
  Zn2+  Zn19  1  0.59630000  0.16683333  0.84540000  1.0
  Zn2+  Zn19  1  0.59630000  0.50016667  0.84540000  1.0
  Zn2+  Zn19  1  0.59630000  0.83350000  0.84540000  1.0
  P5+  P1  1  0.15525000  0.08333333  0.09160000  1.0
  P5+  P1  1  0.15525000  0.41666667  0.09160000  1.0
  P5+  P1  1  0.15525000  0.75000000  0.09160000  1.0
  P5+  P1  1  0.65525000  0.08333333  0.09160000  1.0
  P5+  P1  1  0.65525000  0.41666667  0.09160000  1.0
  P5+  P1  1  0.65525000  0.75000000  0.09160000  1.0
  P5+  P1  1  0.09475000  0.08333333  0.59160000  1.0
  P5+  P1  1  0.09475000  0.41666667  0.59160000  1.0
  P5+  P1  1  0.09475000  0.75000000  0.59160000  1.0
  P5+  P1  1  0.59475000  0.08333333  0.59160000  1.0
  P5+  P1  1  0.59475000  0.41666667  0.59160000  1.0
  P5+  P1  1  0.59475000  0.75000000  0.59160000  1.0
  P5+  P1  1  0.34475000  0.25000000  0.90840000  1.0
  P5+  P1  1  0.34475000  0.58333333  0.90840000  1.0
  P5+  P1  1  0.34475000  0.91666667  0.90840000  1.0
  P5+  P1  1  0.84475000  0.25000000  0.90840000  1.0
  P5+  P1  1  0.84475000  0.58333333  0.90840000  1.0
  P5+  P1  1  0.84475000  0.91666667  0.90840000  1.0
  P5+  P1  1  0.40525000  0.25000000  0.40840000  1.0
  P5+  P1  1  0.40525000  0.58333333  0.40840000  1.0
  P5+  P1  1  0.40525000  0.91666667  0.40840000  1.0
  P5+  P1  1  0.90525000  0.25000000  0.40840000  1.0
  P5+  P1  1  0.90525000  0.58333333  0.40840000  1.0
  P5+  P1  1  0.90525000  0.91666667  0.40840000  1.0
  O2-  O1  1  0.10045000  0.14823333  0.15850000  1.0
  O2-  O1  1  0.10045000  0.48156667  0.15850000  1.0
  O2-  O1  1  0.10045000  0.81490000  0.15850000  1.0
  O2-  O1  1  0.60045000  0.14823333  0.15850000  1.0
  O2-  O1  1  0.60045000  0.48156667  0.15850000  1.0
  O2-  O1  1  0.60045000  0.81490000  0.15850000  1.0
  O2-  O1  1  0.14955000  0.01843333  0.65850000  1.0
  O2-  O1  1  0.14955000  0.35176667  0.65850000  1.0
  O2-  O1  1  0.14955000  0.68510000  0.65850000  1.0
  O2-  O1  1  0.64955000  0.01843333  0.65850000  1.0
  O2-  O1  1  0.64955000  0.35176667  0.65850000  1.0
  O2-  O1  1  0.64955000  0.68510000  0.65850000  1.0
  O2-  O1  1  0.39955000  0.31490000  0.84150000  1.0
  O2-  O1  1  0.39955000  0.64823333  0.84150000  1.0
  O2-  O1  1  0.39955000  0.98156667  0.84150000  1.0
  O2-  O1  1  0.89955000  0.31490000  0.84150000  1.0
  O2-  O1  1  0.89955000  0.64823333  0.84150000  1.0
  O2-  O1  1  0.89955000  0.98156667  0.84150000  1.0
  O2-  O1  1  0.35045000  0.18510000  0.34150000  1.0
  O2-  O1  1  0.35045000  0.51843333  0.34150000  1.0
  O2-  O1  1  0.35045000  0.85176667  0.34150000  1.0
  O2-  O1  1  0.85045000  0.18510000  0.34150000  1.0
  O2-  O1  1  0.85045000  0.51843333  0.34150000  1.0
  O2-  O1  1  0.85045000  0.85176667  0.34150000  1.0
  O2-  O1  1  0.39955000  0.18510000  0.84150000  1.0
  O2-  O1  1  0.39955000  0.51843333  0.84150000  1.0
  O2-  O1  1  0.39955000  0.85176667  0.84150000  1.0
  O2-  O1  1  0.89955000  0.18510000  0.84150000  1.0
  O2-  O1  1  0.89955000  0.51843333  0.84150000  1.0
  O2-  O1  1  0.89955000  0.85176667  0.84150000  1.0
  O2-  O1  1  0.35045000  0.31490000  0.34150000  1.0
  O2-  O1  1  0.35045000  0.64823333  0.34150000  1.0
  O2-  O1  1  0.35045000  0.98156667  0.34150000  1.0
  O2-  O1  1  0.85045000  0.31490000  0.34150000  1.0
  O2-  O1  1  0.85045000  0.64823333  0.34150000  1.0
  O2-  O1  1  0.85045000  0.98156667  0.34150000  1.0
  O2-  O1  1  0.10045000  0.01843333  0.15850000  1.0
  O2-  O1  1  0.10045000  0.35176667  0.15850000  1.0
  O2-  O1  1  0.10045000  0.68510000  0.15850000  1.0
  O2-  O1  1  0.60045000  0.01843333  0.15850000  1.0
  O2-  O1  1  0.60045000  0.35176667  0.15850000  1.0
  O2-  O1  1  0.60045000  0.68510000  0.15850000  1.0
  O2-  O1  1  0.14955000  0.14823333  0.65850000  1.0
  O2-  O1  1  0.14955000  0.48156667  0.65850000  1.0
  O2-  O1  1  0.14955000  0.81490000  0.65850000  1.0
  O2-  O1  1  0.64955000  0.14823333  0.65850000  1.0
  O2-  O1  1  0.64955000  0.48156667  0.65850000  1.0
  O2-  O1  1  0.64955000  0.81490000  0.65850000  1.0
  O2-  O2  1  0.11650000  0.08333333  0.94770000  1.0
  O2-  O2  1  0.11650000  0.41666667  0.94770000  1.0
  O2-  O2  1  0.11650000  0.75000000  0.94770000  1.0
  O2-  O2  1  0.61650000  0.08333333  0.94770000  1.0
  O2-  O2  1  0.61650000  0.41666667  0.94770000  1.0
  O2-  O2  1  0.61650000  0.75000000  0.94770000  1.0
  O2-  O2  1  0.13350000  0.08333333  0.44770000  1.0
  O2-  O2  1  0.13350000  0.41666667  0.44770000  1.0
  O2-  O2  1  0.13350000  0.75000000  0.44770000  1.0
  O2-  O2  1  0.63350000  0.08333333  0.44770000  1.0
  O2-  O2  1  0.63350000  0.41666667  0.44770000  1.0
  O2-  O2  1  0.63350000  0.75000000  0.44770000  1.0
  O2-  O2  1  0.38350000  0.25000000  0.05230000  1.0
  O2-  O2  1  0.38350000  0.58333333  0.05230000  1.0
  O2-  O2  1  0.38350000  0.91666667  0.05230000  1.0
  O2-  O2  1  0.88350000  0.25000000  0.05230000  1.0
  O2-  O2  1  0.88350000  0.58333333  0.05230000  1.0
  O2-  O2  1  0.88350000  0.91666667  0.05230000  1.0
  O2-  O2  1  0.36650000  0.25000000  0.55230000  1.0
  O2-  O2  1  0.36650000  0.58333333  0.55230000  1.0
  O2-  O2  1  0.36650000  0.91666667  0.55230000  1.0
  O2-  O2  1  0.86650000  0.25000000  0.55230000  1.0
  O2-  O2  1  0.86650000  0.58333333  0.55230000  1.0
  O2-  O2  1  0.86650000  0.91666667  0.55230000  1.0
  O2-  O3  1  0.19040000  0.25000000  0.89610000  1.0
  O2-  O3  1  0.19040000  0.58333333  0.89610000  1.0
  O2-  O3  1  0.19040000  0.91666667  0.89610000  1.0
  O2-  O3  1  0.69040000  0.25000000  0.89610000  1.0
  O2-  O3  1  0.69040000  0.58333333  0.89610000  1.0
  O2-  O3  1  0.69040000  0.91666667  0.89610000  1.0
  O2-  O3  1  0.05960000  0.25000000  0.39610000  1.0
  O2-  O3  1  0.05960000  0.58333333  0.39610000  1.0
  O2-  O3  1  0.05960000  0.91666667  0.39610000  1.0
  O2-  O3  1  0.55960000  0.25000000  0.39610000  1.0
  O2-  O3  1  0.55960000  0.58333333  0.39610000  1.0
  O2-  O3  1  0.55960000  0.91666667  0.39610000  1.0
  O2-  O3  1  0.30960000  0.08333333  0.10390000  1.0
  O2-  O3  1  0.30960000  0.41666667  0.10390000  1.0
  O2-  O3  1  0.30960000  0.75000000  0.10390000  1.0
  O2-  O3  1  0.80960000  0.08333333  0.10390000  1.0
  O2-  O3  1  0.80960000  0.41666667  0.10390000  1.0
  O2-  O3  1  0.80960000  0.75000000  0.10390000  1.0
  O2-  O3  1  0.44040000  0.08333333  0.60390000  1.0
  O2-  O3  1  0.44040000  0.41666667  0.60390000  1.0
  O2-  O3  1  0.44040000  0.75000000  0.60390000  1.0
  O2-  O3  1  0.94040000  0.08333333  0.60390000  1.0
  O2-  O3  1  0.94040000  0.41666667  0.60390000  1.0
  O2-  O3  1  0.94040000  0.75000000  0.60390000  1.0
