# generated using pymatgen
data_LiGaO2
_symmetry_space_group_name_H-M   'P 1'
_cell_length_a   10.01400000
_cell_length_b   10.80400000
_cell_length_c   19.11600000
_cell_angle_alpha   90.00000000
_cell_angle_beta   90.00000000
_cell_angle_gamma   90.00000000
_symmetry_Int_Tables_number   1
_chemical_formula_structural   LiGaO2
_chemical_formula_sum   'Li48 Ga48 O96'
_cell_volume   2068.18404970
_cell_formula_units_Z   48
loop_
 _symmetry_equiv_pos_site_id
 _symmetry_equiv_pos_as_xyz
  1  'x, y, z'
loop_
 _atom_type_symbol
 _atom_type_oxidation_number
  Li+  1.0
  Ga3+  3.0
  O2-  -2.0
loop_
 _atom_site_type_symbol
 _atom_site_label
 _atom_site_symmetry_multiplicity
 _atom_site_fract_x
 _atom_site_fract_y
 _atom_site_fract_z
 _atom_site_occupancy
  Li+  Li1  1  0.24680000  0.46035000  0.12443333  1.0
  Li+  Li1  1  0.24680000  0.46035000  0.45776667  1.0
  Li+  Li1  1  0.24680000  0.46035000  0.79110000  1.0
  Li+  Li1  1  0.24680000  0.96035000  0.12443333  1.0
  Li+  Li1  1  0.24680000  0.96035000  0.45776667  1.0
  Li+  Li1  1  0.24680000  0.96035000  0.79110000  1.0
  Li+  Li1  1  0.74680000  0.46035000  0.12443333  1.0
  Li+  Li1  1  0.74680000  0.46035000  0.45776667  1.0
  Li+  Li1  1  0.74680000  0.46035000  0.79110000  1.0
  Li+  Li1  1  0.74680000  0.96035000  0.12443333  1.0
  Li+  Li1  1  0.74680000  0.96035000  0.45776667  1.0
  Li+  Li1  1  0.74680000  0.96035000  0.79110000  1.0
  Li+  Li1  1  0.49680000  0.03965000  0.20890000  1.0
  Li+  Li1  1  0.49680000  0.03965000  0.54223333  1.0
  Li+  Li1  1  0.49680000  0.03965000  0.87556667  1.0
  Li+  Li1  1  0.49680000  0.53965000  0.20890000  1.0
  Li+  Li1  1  0.49680000  0.53965000  0.54223333  1.0
  Li+  Li1  1  0.49680000  0.53965000  0.87556667  1.0
  Li+  Li1  1  0.99680000  0.03965000  0.20890000  1.0
  Li+  Li1  1  0.99680000  0.03965000  0.54223333  1.0
  Li+  Li1  1  0.99680000  0.03965000  0.87556667  1.0
  Li+  Li1  1  0.99680000  0.53965000  0.20890000  1.0
  Li+  Li1  1  0.99680000  0.53965000  0.54223333  1.0
  Li+  Li1  1  0.99680000  0.53965000  0.87556667  1.0
  Li+  Li1  1  0.49680000  0.28965000  0.29110000  1.0
  Li+  Li1  1  0.49680000  0.28965000  0.62443333  1.0
  Li+  Li1  1  0.49680000  0.28965000  0.95776667  1.0
  Li+  Li1  1  0.49680000  0.78965000  0.29110000  1.0
  Li+  Li1  1  0.49680000  0.78965000  0.62443333  1.0
  Li+  Li1  1  0.49680000  0.78965000  0.95776667  1.0
  Li+  Li1  1  0.99680000  0.28965000  0.29110000  1.0
  Li+  Li1  1  0.99680000  0.28965000  0.62443333  1.0
  Li+  Li1  1  0.99680000  0.28965000  0.95776667  1.0
  Li+  Li1  1  0.99680000  0.78965000  0.29110000  1.0
  Li+  Li1  1  0.99680000  0.78965000  0.62443333  1.0
  Li+  Li1  1  0.99680000  0.78965000  0.95776667  1.0
  Li+  Li1  1  0.24680000  0.21035000  0.04223333  1.0
  Li+  Li1  1  0.24680000  0.21035000  0.37556667  1.0
  Li+  Li1  1  0.24680000  0.21035000  0.70890000  1.0
  Li+  Li1  1  0.24680000  0.71035000  0.04223333  1.0
  Li+  Li1  1  0.24680000  0.71035000  0.37556667  1.0
  Li+  Li1  1  0.24680000  0.71035000  0.70890000  1.0
  Li+  Li1  1  0.74680000  0.21035000  0.04223333  1.0
  Li+  Li1  1  0.74680000  0.21035000  0.37556667  1.0
  Li+  Li1  1  0.74680000  0.21035000  0.70890000  1.0
  Li+  Li1  1  0.74680000  0.71035000  0.04223333  1.0
  Li+  Li1  1  0.74680000  0.71035000  0.37556667  1.0
  Li+  Li1  1  0.74680000  0.71035000  0.70890000  1.0
  Ga3+  Ga1  1  0.00000000  0.29105000  0.12456667  1.0
  Ga3+  Ga1  1  0.00000000  0.29105000  0.45790000  1.0
  Ga3+  Ga1  1  0.00000000  0.29105000  0.79123333  1.0
  Ga3+  Ga1  1  0.00000000  0.79105000  0.12456667  1.0
  Ga3+  Ga1  1  0.00000000  0.79105000  0.45790000  1.0
  Ga3+  Ga1  1  0.00000000  0.79105000  0.79123333  1.0
  Ga3+  Ga1  1  0.50000000  0.29105000  0.12456667  1.0
  Ga3+  Ga1  1  0.50000000  0.29105000  0.45790000  1.0
  Ga3+  Ga1  1  0.50000000  0.29105000  0.79123333  1.0
  Ga3+  Ga1  1  0.50000000  0.79105000  0.12456667  1.0
  Ga3+  Ga1  1  0.50000000  0.79105000  0.45790000  1.0
  Ga3+  Ga1  1  0.50000000  0.79105000  0.79123333  1.0
  Ga3+  Ga1  1  0.25000000  0.20895000  0.20876667  1.0
  Ga3+  Ga1  1  0.25000000  0.20895000  0.54210000  1.0
  Ga3+  Ga1  1  0.25000000  0.20895000  0.87543333  1.0
  Ga3+  Ga1  1  0.25000000  0.70895000  0.20876667  1.0
  Ga3+  Ga1  1  0.25000000  0.70895000  0.54210000  1.0
  Ga3+  Ga1  1  0.25000000  0.70895000  0.87543333  1.0
  Ga3+  Ga1  1  0.75000000  0.20895000  0.20876667  1.0
  Ga3+  Ga1  1  0.75000000  0.20895000  0.54210000  1.0
  Ga3+  Ga1  1  0.75000000  0.20895000  0.87543333  1.0
  Ga3+  Ga1  1  0.75000000  0.70895000  0.20876667  1.0
  Ga3+  Ga1  1  0.75000000  0.70895000  0.54210000  1.0
  Ga3+  Ga1  1  0.75000000  0.70895000  0.87543333  1.0
  Ga3+  Ga1  1  0.25000000  0.45895000  0.29123333  1.0
  Ga3+  Ga1  1  0.25000000  0.45895000  0.62456667  1.0
  Ga3+  Ga1  1  0.25000000  0.45895000  0.95790000  1.0
  Ga3+  Ga1  1  0.25000000  0.95895000  0.29123333  1.0
  Ga3+  Ga1  1  0.25000000  0.95895000  0.62456667  1.0
  Ga3+  Ga1  1  0.25000000  0.95895000  0.95790000  1.0
  Ga3+  Ga1  1  0.75000000  0.45895000  0.29123333  1.0
  Ga3+  Ga1  1  0.75000000  0.45895000  0.62456667  1.0
  Ga3+  Ga1  1  0.75000000  0.45895000  0.95790000  1.0
  Ga3+  Ga1  1  0.75000000  0.95895000  0.29123333  1.0
  Ga3+  Ga1  1  0.75000000  0.95895000  0.62456667  1.0
  Ga3+  Ga1  1  0.75000000  0.95895000  0.95790000  1.0
  Ga3+  Ga1  1  0.50000000  0.04105000  0.04210000  1.0
  Ga3+  Ga1  1  0.50000000  0.04105000  0.37543333  1.0
  Ga3+  Ga1  1  0.50000000  0.04105000  0.70876667  1.0
  Ga3+  Ga1  1  0.50000000  0.54105000  0.04210000  1.0
  Ga3+  Ga1  1  0.50000000  0.54105000  0.37543333  1.0
  Ga3+  Ga1  1  0.50000000  0.54105000  0.70876667  1.0
  Ga3+  Ga1  1  0.00000000  0.04105000  0.04210000  1.0
  Ga3+  Ga1  1  0.00000000  0.04105000  0.37543333  1.0
  Ga3+  Ga1  1  0.00000000  0.04105000  0.70876667  1.0
  Ga3+  Ga1  1  0.00000000  0.54105000  0.04210000  1.0
  Ga3+  Ga1  1  0.00000000  0.54105000  0.37543333  1.0
  Ga3+  Ga1  1  0.00000000  0.54105000  0.70876667  1.0
  O2-  O1  1  0.44635000  0.45330000  0.12040000  1.0
  O2-  O1  1  0.44635000  0.45330000  0.45373333  1.0
  O2-  O1  1  0.44635000  0.45330000  0.78706667  1.0
  O2-  O1  1  0.44635000  0.95330000  0.12040000  1.0
  O2-  O1  1  0.44635000  0.95330000  0.45373333  1.0
  O2-  O1  1  0.44635000  0.95330000  0.78706667  1.0
  O2-  O1  1  0.94635000  0.45330000  0.12040000  1.0
  O2-  O1  1  0.94635000  0.45330000  0.45373333  1.0
  O2-  O1  1  0.94635000  0.45330000  0.78706667  1.0
  O2-  O1  1  0.94635000  0.95330000  0.12040000  1.0
  O2-  O1  1  0.94635000  0.95330000  0.45373333  1.0
  O2-  O1  1  0.94635000  0.95330000  0.78706667  1.0
  O2-  O1  1  0.19635000  0.04670000  0.21293333  1.0
  O2-  O1  1  0.19635000  0.04670000  0.54626667  1.0
  O2-  O1  1  0.19635000  0.04670000  0.87960000  1.0
  O2-  O1  1  0.19635000  0.54670000  0.21293333  1.0
  O2-  O1  1  0.19635000  0.54670000  0.54626667  1.0
  O2-  O1  1  0.19635000  0.54670000  0.87960000  1.0
  O2-  O1  1  0.69635000  0.04670000  0.21293333  1.0
  O2-  O1  1  0.69635000  0.04670000  0.54626667  1.0
  O2-  O1  1  0.69635000  0.04670000  0.87960000  1.0
  O2-  O1  1  0.69635000  0.54670000  0.21293333  1.0
  O2-  O1  1  0.69635000  0.54670000  0.54626667  1.0
  O2-  O1  1  0.69635000  0.54670000  0.87960000  1.0
  O2-  O1  1  0.19635000  0.29670000  0.28706667  1.0
  O2-  O1  1  0.19635000  0.29670000  0.62040000  1.0
  O2-  O1  1  0.19635000  0.29670000  0.95373333  1.0
  O2-  O1  1  0.19635000  0.79670000  0.28706667  1.0
  O2-  O1  1  0.19635000  0.79670000  0.62040000  1.0
  O2-  O1  1  0.19635000  0.79670000  0.95373333  1.0
  O2-  O1  1  0.69635000  0.29670000  0.28706667  1.0
  O2-  O1  1  0.69635000  0.29670000  0.62040000  1.0
  O2-  O1  1  0.69635000  0.29670000  0.95373333  1.0
  O2-  O1  1  0.69635000  0.79670000  0.28706667  1.0
  O2-  O1  1  0.69635000  0.79670000  0.62040000  1.0
  O2-  O1  1  0.69635000  0.79670000  0.95373333  1.0
  O2-  O1  1  0.44635000  0.20330000  0.04626667  1.0
  O2-  O1  1  0.44635000  0.20330000  0.37960000  1.0
  O2-  O1  1  0.44635000  0.20330000  0.71293333  1.0
  O2-  O1  1  0.44635000  0.70330000  0.04626667  1.0
  O2-  O1  1  0.44635000  0.70330000  0.37960000  1.0
  O2-  O1  1  0.44635000  0.70330000  0.71293333  1.0
  O2-  O1  1  0.94635000  0.20330000  0.04626667  1.0
  O2-  O1  1  0.94635000  0.20330000  0.37960000  1.0
  O2-  O1  1  0.94635000  0.20330000  0.71293333  1.0
  O2-  O1  1  0.94635000  0.70330000  0.04626667  1.0
  O2-  O1  1  0.94635000  0.70330000  0.37960000  1.0
  O2-  O1  1  0.94635000  0.70330000  0.71293333  1.0
  O2-  O2  1  0.18540000  0.28485000  0.12930000  1.0
  O2-  O2  1  0.18540000  0.28485000  0.46263333  1.0
  O2-  O2  1  0.18540000  0.28485000  0.79596667  1.0
  O2-  O2  1  0.18540000  0.78485000  0.12930000  1.0
  O2-  O2  1  0.18540000  0.78485000  0.46263333  1.0
  O2-  O2  1  0.18540000  0.78485000  0.79596667  1.0
  O2-  O2  1  0.68540000  0.28485000  0.12930000  1.0
  O2-  O2  1  0.68540000  0.28485000  0.46263333  1.0
  O2-  O2  1  0.68540000  0.28485000  0.79596667  1.0
  O2-  O2  1  0.68540000  0.78485000  0.12930000  1.0
  O2-  O2  1  0.68540000  0.78485000  0.46263333  1.0
  O2-  O2  1  0.68540000  0.78485000  0.79596667  1.0
  O2-  O2  1  0.43540000  0.21515000  0.20403333  1.0
  O2-  O2  1  0.43540000  0.21515000  0.53736667  1.0
  O2-  O2  1  0.43540000  0.21515000  0.87070000  1.0
  O2-  O2  1  0.43540000  0.71515000  0.20403333  1.0
  O2-  O2  1  0.43540000  0.71515000  0.53736667  1.0
  O2-  O2  1  0.43540000  0.71515000  0.87070000  1.0
  O2-  O2  1  0.93540000  0.21515000  0.20403333  1.0
  O2-  O2  1  0.93540000  0.21515000  0.53736667  1.0
  O2-  O2  1  0.93540000  0.21515000  0.87070000  1.0
  O2-  O2  1  0.93540000  0.71515000  0.20403333  1.0
  O2-  O2  1  0.93540000  0.71515000  0.53736667  1.0
  O2-  O2  1  0.93540000  0.71515000  0.87070000  1.0
  O2-  O2  1  0.43540000  0.46515000  0.29596667  1.0
  O2-  O2  1  0.43540000  0.46515000  0.62930000  1.0
  O2-  O2  1  0.43540000  0.46515000  0.96263333  1.0
  O2-  O2  1  0.43540000  0.96515000  0.29596667  1.0
  O2-  O2  1  0.43540000  0.96515000  0.62930000  1.0
  O2-  O2  1  0.43540000  0.96515000  0.96263333  1.0
  O2-  O2  1  0.93540000  0.46515000  0.29596667  1.0
  O2-  O2  1  0.93540000  0.46515000  0.62930000  1.0
  O2-  O2  1  0.93540000  0.46515000  0.96263333  1.0
  O2-  O2  1  0.93540000  0.96515000  0.29596667  1.0
  O2-  O2  1  0.93540000  0.96515000  0.62930000  1.0
  O2-  O2  1  0.93540000  0.96515000  0.96263333  1.0
  O2-  O2  1  0.18540000  0.03485000  0.03736667  1.0
  O2-  O2  1  0.18540000  0.03485000  0.37070000  1.0
  O2-  O2  1  0.18540000  0.03485000  0.70403333  1.0
  O2-  O2  1  0.18540000  0.53485000  0.03736667  1.0
  O2-  O2  1  0.18540000  0.53485000  0.37070000  1.0
  O2-  O2  1  0.18540000  0.53485000  0.70403333  1.0
  O2-  O2  1  0.68540000  0.03485000  0.03736667  1.0
  O2-  O2  1  0.68540000  0.03485000  0.37070000  1.0
  O2-  O2  1  0.68540000  0.03485000  0.70403333  1.0
  O2-  O2  1  0.68540000  0.53485000  0.03736667  1.0
  O2-  O2  1  0.68540000  0.53485000  0.37070000  1.0
  O2-  O2  1  0.68540000  0.53485000  0.70403333  1.0
