# generated using pymatgen
data_Li13Ti17Al3(PO4)30
_symmetry_space_group_name_H-M   'P 1'
_cell_length_a   8.41989825
_cell_length_b   42.09949123
_cell_length_c   8.41989825
_cell_angle_alpha   60.66114979
_cell_angle_beta   119.33885021
_cell_angle_gamma   119.33885021
_symmetry_Int_Tables_number   1
_chemical_formula_structural   Li13Ti17Al3(PO4)30
_chemical_formula_sum   'Li13 Ti17 Al3 P30 O120'
_cell_volume   2141.95310565
_cell_formula_units_Z   1
loop_
 _symmetry_equiv_pos_site_id
 _symmetry_equiv_pos_as_xyz
  1  'x, y, z'
loop_
 _atom_type_symbol
 _atom_type_oxidation_number
  Li+  1.0
  Ti4+  4.0
  Al3+  3.0
  P5+  5.0
  O2-  -2.0
loop_
 _atom_site_type_symbol
 _atom_site_label
 _atom_site_symmetry_multiplicity
 _atom_site_fract_x
 _atom_site_fract_y
 _atom_site_fract_z
 _atom_site_occupancy
  Li+  Li0  1  0.50000000  0.90000000  0.25000000  1.0
  Li+  Li1  1  0.50000000  0.70000000  0.25000000  1.0
  Li+  Li2  1  0.49903900  0.49798480  0.25073209  1.0
  Li+  Li3  1  0.50391869  0.29925441  0.25015481  1.0
  Li+  Li4  1  0.50000000  0.10000000  0.25000000  1.0
  Li+  Li5  1  0.00000000  0.00000000  0.75000000  1.0
  Li+  Li6  1  0.00000000  0.80000000  0.75000000  1.0
  Li+  Li7  1  0.00000000  0.60000000  0.75000000  1.0
  Li+  Li8  1  0.99863468  0.39669892  0.74962017  1.0
  Li+  Li9  1  0.00000000  0.20000000  0.75000000  1.0
  Li+  Li10  1  0.25000000  0.55000000  0.50000000  1.0
  Li+  Li11  1  0.25000000  0.35000000  0.50000000  1.0
  Li+  Li12  1  0.75000000  0.25000000  0.00000000  1.0
  Ti4+  Ti13  1  0.36000000  0.92800000  0.39000000  1.0
  Ti4+  Ti14  1  0.36000000  0.72800000  0.39000000  1.0
  Ti4+  Ti15  1  0.36000000  0.52800000  0.39000000  1.0
  Ti4+  Ti16  1  0.36000000  0.32800000  0.39000000  1.0
  Ti4+  Ti17  1  0.36000000  0.12800000  0.39000000  1.0
  Ti4+  Ti18  1  0.86000000  0.82800000  0.89000000  1.0
  Ti4+  Ti19  1  0.86000000  0.62800000  0.89000000  1.0
  Ti4+  Ti20  1  0.86000000  0.42800000  0.89000000  1.0
  Ti4+  Ti21  1  0.85704553  0.23049828  0.89128645  1.0
  Ti4+  Ti22  1  0.86000000  0.02800000  0.89000000  1.0
  Ti4+  Ti23  1  0.64000000  0.87200000  0.11000000  1.0
  Ti4+  Ti24  1  0.64000000  0.67200000  0.11000000  1.0
  Ti4+  Ti25  1  0.64636887  0.47468155  0.11530112  1.0
  Ti4+  Ti26  1  0.64000000  0.07200000  0.11000000  1.0
  Ti4+  Ti27  1  0.14000000  0.97200000  0.61000000  1.0
  Ti4+  Ti28  1  0.13865301  0.77803792  0.60951628  1.0
  Ti4+  Ti29  1  0.14000000  0.17200000  0.61000000  1.0
  Al3+  Al30  1  0.64058064  0.27427508  0.11458184  1.0
  Al3+  Al31  1  0.14000000  0.57200000  0.61000000  1.0
  Al3+  Al32  1  0.14000000  0.37200000  0.61000000  1.0
  P5+  P33  1  0.54000000  0.95000000  0.79000000  1.0
  P5+  P34  1  0.54000000  0.75000000  0.79000000  1.0
  P5+  P35  1  0.54000000  0.55000000  0.79000000  1.0
  P5+  P36  1  0.53760918  0.34606023  0.78797714  1.0
  P5+  P37  1  0.54000000  0.15000000  0.79000000  1.0
  P5+  P38  1  0.96000000  0.89200000  0.50000000  1.0
  P5+  P39  1  0.96000000  0.69200000  0.50000000  1.0
  P5+  P40  1  0.96000000  0.49200000  0.50000000  1.0
  P5+  P41  1  0.96000000  0.29200000  0.50000000  1.0
  P5+  P42  1  0.96000000  0.09200000  0.50000000  1.0
  P5+  P43  1  0.25000000  0.80800000  0.21000000  1.0
  P5+  P44  1  0.25000000  0.60800000  0.21000000  1.0
  P5+  P45  1  0.25000000  0.40800000  0.21000000  1.0
  P5+  P46  1  0.25000000  0.20800000  0.21000000  1.0
  P5+  P47  1  0.25000000  0.00800000  0.21000000  1.0
  P5+  P48  1  0.03820857  0.90917362  0.00054161  1.0
  P5+  P49  1  0.04000000  0.70800000  0.00000000  1.0
  P5+  P50  1  0.04436338  0.50476195  0.00166771  1.0
  P5+  P51  1  0.04000000  0.30800000  0.00000000  1.0
  P5+  P52  1  0.04000000  0.10800000  0.00000000  1.0
  P5+  P53  1  0.75000000  0.99200000  0.29000000  1.0
  P5+  P54  1  0.74932942  0.79652820  0.29311837  1.0
  P5+  P55  1  0.75000000  0.59200000  0.29000000  1.0
  P5+  P56  1  0.75107774  0.39072159  0.28808578  1.0
  P5+  P57  1  0.75000000  0.19200000  0.29000000  1.0
  P5+  P58  1  0.46000000  0.85000000  0.71000000  1.0
  P5+  P59  1  0.46000000  0.65000000  0.71000000  1.0
  P5+  P60  1  0.46000000  0.45000000  0.71000000  1.0
  P5+  P61  1  0.45583840  0.25071891  0.71189779  1.0
  P5+  P62  1  0.46000000  0.05000000  0.71000000  1.0
  O2-  O63  1  0.50200000  0.93840000  0.63000000  1.0
  O2-  O64  1  0.50186835  0.73915590  0.62253345  1.0
  O2-  O65  1  0.50200000  0.53840000  0.63000000  1.0
  O2-  O66  1  0.50372487  0.33554279  0.63121238  1.0
  O2-  O67  1  0.50200000  0.13840000  0.63000000  1.0
  O2-  O68  1  0.12000000  0.89960000  0.44200000  1.0
  O2-  O69  1  0.12000000  0.69960000  0.44200000  1.0
  O2-  O70  1  0.11941416  0.50100371  0.44169024  1.0
  O2-  O71  1  0.12000000  0.29960000  0.44200000  1.0
  O2-  O72  1  0.12000000  0.09960000  0.44200000  1.0
  O2-  O73  1  0.30800000  0.97600000  0.24800000  1.0
  O2-  O74  1  0.30800000  0.77600000  0.24800000  1.0
  O2-  O75  1  0.30800000  0.57600000  0.24800000  1.0
  O2-  O76  1  0.30833449  0.37841860  0.24605663  1.0
  O2-  O77  1  0.30800000  0.17600000  0.24800000  1.0
  O2-  O78  1  0.00206598  0.87667380  0.94223328  1.0
  O2-  O79  1  0.00200000  0.67600000  0.94200000  1.0
  O2-  O80  1  0.00200000  0.47600000  0.94200000  1.0
  O2-  O81  1  0.00052649  0.27530601  0.93863921  1.0
  O2-  O82  1  0.00200000  0.07600000  0.94200000  1.0
  O2-  O83  1  0.80800000  0.99960000  0.13000000  1.0
  O2-  O84  1  0.80800000  0.79960000  0.13000000  1.0
  O2-  O85  1  0.80800000  0.59960000  0.13000000  1.0
  O2-  O86  1  0.80800000  0.39960000  0.13000000  1.0
  O2-  O87  1  0.80800000  0.19960000  0.13000000  1.0
  O2-  O88  1  0.62274946  0.84014508  0.75173787  1.0
  O2-  O89  1  0.62000000  0.63840000  0.74800000  1.0
  O2-  O90  1  0.62173453  0.43929126  0.75000468  1.0
  O2-  O91  1  0.62000000  0.23840000  0.74800000  1.0
  O2-  O92  1  0.62000000  0.03840000  0.74800000  1.0
  O2-  O93  1  0.49566060  0.86291368  0.86684581  1.0
  O2-  O94  1  0.49800000  0.66160000  0.87000000  1.0
  O2-  O95  1  0.50153846  0.46312518  0.86844709  1.0
  O2-  O96  1  0.49800000  0.26160000  0.87000000  1.0
  O2-  O97  1  0.49539146  0.06121321  0.86991836  1.0
  O2-  O98  1  0.88000000  0.90040000  0.05800000  1.0
  O2-  O99  1  0.88000000  0.70040000  0.05800000  1.0
  O2-  O100  1  0.88000000  0.50040000  0.05800000  1.0
  O2-  O101  1  0.88000000  0.30040000  0.05800000  1.0
  O2-  O102  1  0.88000000  0.10040000  0.05800000  1.0
  O2-  O103  1  0.69200000  0.82400000  0.25200000  1.0
  O2-  O104  1  0.69200000  0.62400000  0.25200000  1.0
  O2-  O105  1  0.69200000  0.42400000  0.25200000  1.0
  O2-  O106  1  0.69195675  0.22269462  0.24945903  1.0
  O2-  O107  1  0.69200000  0.02400000  0.25200000  1.0
  O2-  O108  1  0.99800000  0.92400000  0.55800000  1.0
  O2-  O109  1  0.99800000  0.72400000  0.55800000  1.0
  O2-  O110  1  0.99800000  0.52400000  0.55800000  1.0
  O2-  O111  1  0.00031310  0.32458960  0.56541086  1.0
  O2-  O112  1  0.99800000  0.12400000  0.55800000  1.0
  O2-  O113  1  0.19200000  0.80040000  0.37000000  1.0
  O2-  O114  1  0.19200000  0.60040000  0.37000000  1.0
  O2-  O115  1  0.19200000  0.40040000  0.37000000  1.0
  O2-  O116  1  0.19200000  0.20040000  0.37000000  1.0
  O2-  O117  1  0.18703954  0.00470270  0.36865136  1.0
  O2-  O118  1  0.38000000  0.96160000  0.75200000  1.0
  O2-  O119  1  0.38000000  0.76160000  0.75200000  1.0
  O2-  O120  1  0.38391153  0.55776169  0.75133223  1.0
  O2-  O121  1  0.38000000  0.36160000  0.75200000  1.0
  O2-  O122  1  0.38000000  0.16160000  0.75200000  1.0
  O2-  O123  1  0.45000000  0.88400000  0.52000000  1.0
  O2-  O124  1  0.45000000  0.68400000  0.52000000  1.0
  O2-  O125  1  0.44530062  0.48645983  0.51756728  1.0
  O2-  O126  1  0.44430689  0.28275142  0.52111794  1.0
  O2-  O127  1  0.45000000  0.08400000  0.52000000  1.0
  O2-  O128  1  0.23000000  0.91000000  0.17000000  1.0
  O2-  O129  1  0.23000000  0.71000000  0.17000000  1.0
  O2-  O130  1  0.22715745  0.50679200  0.16661728  1.0
  O2-  O131  1  0.23000000  0.31000000  0.17000000  1.0
  O2-  O132  1  0.22968718  0.11220443  0.16979124  1.0
  O2-  O133  1  0.58000000  0.95400000  0.30000000  1.0
  O2-  O134  1  0.58000000  0.75400000  0.30000000  1.0
  O2-  O135  1  0.58000000  0.55400000  0.30000000  1.0
  O2-  O136  1  0.58439474  0.35679886  0.29832054  1.0
  O2-  O137  1  0.58000000  0.15400000  0.30000000  1.0
  O2-  O138  1  0.94526323  0.85514105  0.66837915  1.0
  O2-  O139  1  0.95000000  0.65400000  0.67000000  1.0
  O2-  O140  1  0.95000000  0.45400000  0.67000000  1.0
  O2-  O141  1  0.95189977  0.25009875  0.67023055  1.0
  O2-  O142  1  0.94961499  0.05173011  0.66646334  1.0
  O2-  O143  1  0.08000000  0.81000000  0.02000000  1.0
  O2-  O144  1  0.08000000  0.61000000  0.02000000  1.0
  O2-  O145  1  0.08000000  0.41000000  0.02000000  1.0
  O2-  O146  1  0.08000000  0.21000000  0.02000000  1.0
  O2-  O147  1  0.08000000  0.01000000  0.02000000  1.0
  O2-  O148  1  0.73000000  0.98400000  0.80000000  1.0
  O2-  O149  1  0.73000000  0.78400000  0.80000000  1.0
  O2-  O150  1  0.73000000  0.58400000  0.80000000  1.0
  O2-  O151  1  0.73000000  0.38400000  0.80000000  1.0
  O2-  O152  1  0.73000000  0.18400000  0.80000000  1.0
  O2-  O153  1  0.55264655  0.91862833  0.98090640  1.0
  O2-  O154  1  0.55000000  0.71600000  0.98000000  1.0
  O2-  O155  1  0.55000000  0.51600000  0.98000000  1.0
  O2-  O156  1  0.54933454  0.31450710  0.97887462  1.0
  O2-  O157  1  0.55000000  0.11600000  0.98000000  1.0
  O2-  O158  1  0.77000000  0.89000000  0.33000000  1.0
  O2-  O159  1  0.76844550  0.69164494  0.32645744  1.0
  O2-  O160  1  0.77000000  0.49000000  0.33000000  1.0
  O2-  O161  1  0.77000000  0.29000000  0.33000000  1.0
  O2-  O162  1  0.77000000  0.09000000  0.33000000  1.0
  O2-  O163  1  0.42000000  0.84600000  0.20000000  1.0
  O2-  O164  1  0.42000000  0.64600000  0.20000000  1.0
  O2-  O165  1  0.42000000  0.44600000  0.20000000  1.0
  O2-  O166  1  0.41980767  0.24890529  0.19690025  1.0
  O2-  O167  1  0.42000000  0.04600000  0.20000000  1.0
  O2-  O168  1  0.05000000  0.94600000  0.83000000  1.0
  O2-  O169  1  0.05122491  0.74485322  0.83225111  1.0
  O2-  O170  1  0.05000000  0.54600000  0.83000000  1.0
  O2-  O171  1  0.05000000  0.34600000  0.83000000  1.0
  O2-  O172  1  0.04608516  0.14491323  0.83000130  1.0
  O2-  O173  1  0.91896159  0.99229933  0.48011303  1.0
  O2-  O174  1  0.92000000  0.79000000  0.48000000  1.0
  O2-  O175  1  0.92000000  0.59000000  0.48000000  1.0
  O2-  O176  1  0.92000000  0.39000000  0.48000000  1.0
  O2-  O177  1  0.92000000  0.19000000  0.48000000  1.0
  O2-  O178  1  0.26759437  0.81896601  0.69971830  1.0
  O2-  O179  1  0.27529953  0.61660736  0.70242230  1.0
  O2-  O180  1  0.27000000  0.41600000  0.70000000  1.0
  O2-  O181  1  0.27000000  0.21600000  0.70000000  1.0
  O2-  O182  1  0.27000000  0.01600000  0.70000000  1.0
