# generated using pymatgen
data_Li13Ti17Al3(PO4)30
_symmetry_space_group_name_H-M   'P 1'
_cell_length_a   8.41989825
_cell_length_b   8.41989825
_cell_length_c   42.09949123
_cell_angle_alpha   60.66114979
_cell_angle_beta   60.66114979
_cell_angle_gamma   60.66114979
_symmetry_Int_Tables_number   1
_chemical_formula_structural   Li13Ti17Al3(PO4)30
_chemical_formula_sum   'Li13 Ti17 Al3 P30 O120'
_cell_volume   2141.95310565
_cell_formula_units_Z   1
loop_
 _symmetry_equiv_pos_site_id
 _symmetry_equiv_pos_as_xyz
  1  'x, y, z'
loop_
 _atom_type_symbol
 _atom_type_oxidation_number
  Li+  1.0
  Ti4+  4.0
  Al3+  3.0
  P5+  5.0
  O2-  -2.0
loop_
 _atom_site_type_symbol
 _atom_site_label
 _atom_site_symmetry_multiplicity
 _atom_site_fract_x
 _atom_site_fract_y
 _atom_site_fract_z
 _atom_site_occupancy
  Li+  Li1  1  0.50000000  0.50000000  0.10000000  1.0
  Li+  Li1  1  0.50000000  0.50000000  0.30000000  1.0
  Li+  Li1  1  0.50000000  0.50000000  0.50000000  1.0
  Li+  Li1  1  0.50000000  0.50000000  0.70000000  1.0
  Li+  Li1  1  0.50000000  0.50000000  0.90000000  1.0
  Li+  Li1  1  0.00000000  0.00000000  0.00000000  1.0
  Li+  Li1  1  0.00000000  0.00000000  0.20000000  1.0
  Li+  Li1  1  0.00000000  0.00000000  0.40000000  1.0
  Li+  Li1  1  0.00000000  0.00000000  0.60000000  1.0
  Li+  Li1  1  0.00000000  0.00000000  0.80000000  1.0
  Li+  Li10  1  0.25000000  0.25000000  0.45000000  1.0
  Li+  Li11  1  0.25000000  0.25000000  0.65000000  1.0
  Li+  Li12  1  0.75000000  0.75000000  0.75000000  1.0
  Ti4+  Ti13  1  0.36000000  0.36000000  0.07200000  1.0
  Ti4+  Ti14  1  0.36000000  0.36000000  0.27200000  1.0
  Ti4+  Ti15  1  0.36000000  0.36000000  0.47200000  1.0
  Ti4+  Ti16  1  0.36000000  0.36000000  0.67200000  1.0
  Ti4+  Ti17  1  0.36000000  0.36000000  0.87200000  1.0
  Ti4+  Ti18  1  0.86000000  0.86000000  0.17200000  1.0
  Ti4+  Ti19  1  0.86000000  0.86000000  0.37200000  1.0
  Ti4+  Ti20  1  0.86000000  0.86000000  0.57200000  1.0
  Ti4+  Ti21  1  0.86000000  0.86000000  0.77200000  1.0
  Ti4+  Ti22  1  0.86000000  0.86000000  0.97200000  1.0
  Ti4+  Ti23  1  0.64000000  0.64000000  0.12800000  1.0
  Ti4+  Ti24  1  0.64000000  0.64000000  0.32800000  1.0
  Ti4+  Ti25  1  0.64000000  0.64000000  0.52800000  1.0
  Ti4+  Ti26  1  0.64000000  0.64000000  0.92800000  1.0
  Ti4+  Ti27  1  0.14000000  0.14000000  0.02800000  1.0
  Ti4+  Ti28  1  0.14000000  0.14000000  0.22800000  1.0
  Ti4+  Ti29  1  0.14000000  0.14000000  0.82800000  1.0
  Al3+  Al30  1  0.64000000  0.64000000  0.72800000  1.0
  Al3+  Al31  1  0.14000000  0.14000000  0.42800000  1.0
  Al3+  Al32  1  0.14000000  0.14000000  0.62800000  1.0
  P5+  P1  1  0.54000000  0.96000000  0.05000000  1.0
  P5+  P1  1  0.54000000  0.96000000  0.25000000  1.0
  P5+  P1  1  0.54000000  0.96000000  0.45000000  1.0
  P5+  P1  1  0.54000000  0.96000000  0.65000000  1.0
  P5+  P1  1  0.54000000  0.96000000  0.85000000  1.0
  P5+  P1  1  0.96000000  0.25000000  0.10800000  1.0
  P5+  P1  1  0.96000000  0.25000000  0.30800000  1.0
  P5+  P1  1  0.96000000  0.25000000  0.50800000  1.0
  P5+  P1  1  0.96000000  0.25000000  0.70800000  1.0
  P5+  P1  1  0.96000000  0.25000000  0.90800000  1.0
  P5+  P1  1  0.25000000  0.54000000  0.19200000  1.0
  P5+  P1  1  0.25000000  0.54000000  0.39200000  1.0
  P5+  P1  1  0.25000000  0.54000000  0.59200000  1.0
  P5+  P1  1  0.25000000  0.54000000  0.79200000  1.0
  P5+  P1  1  0.25000000  0.54000000  0.99200000  1.0
  P5+  P1  1  0.04000000  0.75000000  0.09200000  1.0
  P5+  P1  1  0.04000000  0.75000000  0.29200000  1.0
  P5+  P1  1  0.04000000  0.75000000  0.49200000  1.0
  P5+  P1  1  0.04000000  0.75000000  0.69200000  1.0
  P5+  P1  1  0.04000000  0.75000000  0.89200000  1.0
  P5+  P1  1  0.75000000  0.46000000  0.00800000  1.0
  P5+  P1  1  0.75000000  0.46000000  0.20800000  1.0
  P5+  P1  1  0.75000000  0.46000000  0.40800000  1.0
  P5+  P1  1  0.75000000  0.46000000  0.60800000  1.0
  P5+  P1  1  0.75000000  0.46000000  0.80800000  1.0
  P5+  P1  1  0.46000000  0.04000000  0.15000000  1.0
  P5+  P1  1  0.46000000  0.04000000  0.35000000  1.0
  P5+  P1  1  0.46000000  0.04000000  0.55000000  1.0
  P5+  P1  1  0.46000000  0.04000000  0.75000000  1.0
  P5+  P1  1  0.46000000  0.04000000  0.95000000  1.0
  O2-  O1  1  0.50200000  0.12000000  0.06160000  1.0
  O2-  O1  1  0.50200000  0.12000000  0.26160000  1.0
  O2-  O1  1  0.50200000  0.12000000  0.46160000  1.0
  O2-  O1  1  0.50200000  0.12000000  0.66160000  1.0
  O2-  O1  1  0.50200000  0.12000000  0.86160000  1.0
  O2-  O1  1  0.12000000  0.30800000  0.10040000  1.0
  O2-  O1  1  0.12000000  0.30800000  0.30040000  1.0
  O2-  O1  1  0.12000000  0.30800000  0.50040000  1.0
  O2-  O1  1  0.12000000  0.30800000  0.70040000  1.0
  O2-  O1  1  0.12000000  0.30800000  0.90040000  1.0
  O2-  O1  1  0.30800000  0.50200000  0.02400000  1.0
  O2-  O1  1  0.30800000  0.50200000  0.22400000  1.0
  O2-  O1  1  0.30800000  0.50200000  0.42400000  1.0
  O2-  O1  1  0.30800000  0.50200000  0.62400000  1.0
  O2-  O1  1  0.30800000  0.50200000  0.82400000  1.0
  O2-  O1  1  0.00200000  0.80800000  0.12400000  1.0
  O2-  O1  1  0.00200000  0.80800000  0.32400000  1.0
  O2-  O1  1  0.00200000  0.80800000  0.52400000  1.0
  O2-  O1  1  0.00200000  0.80800000  0.72400000  1.0
  O2-  O1  1  0.00200000  0.80800000  0.92400000  1.0
  O2-  O1  1  0.80800000  0.62000000  0.00040000  1.0
  O2-  O1  1  0.80800000  0.62000000  0.20040000  1.0
  O2-  O1  1  0.80800000  0.62000000  0.40040000  1.0
  O2-  O1  1  0.80800000  0.62000000  0.60040000  1.0
  O2-  O1  1  0.80800000  0.62000000  0.80040000  1.0
  O2-  O1  1  0.62000000  0.00200000  0.16160000  1.0
  O2-  O1  1  0.62000000  0.00200000  0.36160000  1.0
  O2-  O1  1  0.62000000  0.00200000  0.56160000  1.0
  O2-  O1  1  0.62000000  0.00200000  0.76160000  1.0
  O2-  O1  1  0.62000000  0.00200000  0.96160000  1.0
  O2-  O1  1  0.49800000  0.88000000  0.13840000  1.0
  O2-  O1  1  0.49800000  0.88000000  0.33840000  1.0
  O2-  O1  1  0.49800000  0.88000000  0.53840000  1.0
  O2-  O1  1  0.49800000  0.88000000  0.73840000  1.0
  O2-  O1  1  0.49800000  0.88000000  0.93840000  1.0
  O2-  O1  1  0.88000000  0.69200000  0.09960000  1.0
  O2-  O1  1  0.88000000  0.69200000  0.29960000  1.0
  O2-  O1  1  0.88000000  0.69200000  0.49960000  1.0
  O2-  O1  1  0.88000000  0.69200000  0.69960000  1.0
  O2-  O1  1  0.88000000  0.69200000  0.89960000  1.0
  O2-  O1  1  0.69200000  0.49800000  0.17600000  1.0
  O2-  O1  1  0.69200000  0.49800000  0.37600000  1.0
  O2-  O1  1  0.69200000  0.49800000  0.57600000  1.0
  O2-  O1  1  0.69200000  0.49800000  0.77600000  1.0
  O2-  O1  1  0.69200000  0.49800000  0.97600000  1.0
  O2-  O1  1  0.99800000  0.19200000  0.07600000  1.0
  O2-  O1  1  0.99800000  0.19200000  0.27600000  1.0
  O2-  O1  1  0.99800000  0.19200000  0.47600000  1.0
  O2-  O1  1  0.99800000  0.19200000  0.67600000  1.0
  O2-  O1  1  0.99800000  0.19200000  0.87600000  1.0
  O2-  O1  1  0.19200000  0.38000000  0.19960000  1.0
  O2-  O1  1  0.19200000  0.38000000  0.39960000  1.0
  O2-  O1  1  0.19200000  0.38000000  0.59960000  1.0
  O2-  O1  1  0.19200000  0.38000000  0.79960000  1.0
  O2-  O1  1  0.19200000  0.38000000  0.99960000  1.0
  O2-  O1  1  0.38000000  0.99800000  0.03840000  1.0
  O2-  O1  1  0.38000000  0.99800000  0.23840000  1.0
  O2-  O1  1  0.38000000  0.99800000  0.43840000  1.0
  O2-  O1  1  0.38000000  0.99800000  0.63840000  1.0
  O2-  O1  1  0.38000000  0.99800000  0.83840000  1.0
  O2-  O2  1  0.45000000  0.23000000  0.11600000  1.0
  O2-  O2  1  0.45000000  0.23000000  0.31600000  1.0
  O2-  O2  1  0.45000000  0.23000000  0.51600000  1.0
  O2-  O2  1  0.45000000  0.23000000  0.71600000  1.0
  O2-  O2  1  0.45000000  0.23000000  0.91600000  1.0
  O2-  O2  1  0.23000000  0.58000000  0.09000000  1.0
  O2-  O2  1  0.23000000  0.58000000  0.29000000  1.0
  O2-  O2  1  0.23000000  0.58000000  0.49000000  1.0
  O2-  O2  1  0.23000000  0.58000000  0.69000000  1.0
  O2-  O2  1  0.23000000  0.58000000  0.89000000  1.0
  O2-  O2  1  0.58000000  0.45000000  0.04600000  1.0
  O2-  O2  1  0.58000000  0.45000000  0.24600000  1.0
  O2-  O2  1  0.58000000  0.45000000  0.44600000  1.0
  O2-  O2  1  0.58000000  0.45000000  0.64600000  1.0
  O2-  O2  1  0.58000000  0.45000000  0.84600000  1.0
  O2-  O2  1  0.95000000  0.08000000  0.14600000  1.0
  O2-  O2  1  0.95000000  0.08000000  0.34600000  1.0
  O2-  O2  1  0.95000000  0.08000000  0.54600000  1.0
  O2-  O2  1  0.95000000  0.08000000  0.74600000  1.0
  O2-  O2  1  0.95000000  0.08000000  0.94600000  1.0
  O2-  O2  1  0.08000000  0.73000000  0.19000000  1.0
  O2-  O2  1  0.08000000  0.73000000  0.39000000  1.0
  O2-  O2  1  0.08000000  0.73000000  0.59000000  1.0
  O2-  O2  1  0.08000000  0.73000000  0.79000000  1.0
  O2-  O2  1  0.08000000  0.73000000  0.99000000  1.0
  O2-  O2  1  0.73000000  0.95000000  0.01600000  1.0
  O2-  O2  1  0.73000000  0.95000000  0.21600000  1.0
  O2-  O2  1  0.73000000  0.95000000  0.41600000  1.0
  O2-  O2  1  0.73000000  0.95000000  0.61600000  1.0
  O2-  O2  1  0.73000000  0.95000000  0.81600000  1.0
  O2-  O2  1  0.55000000  0.77000000  0.08400000  1.0
  O2-  O2  1  0.55000000  0.77000000  0.28400000  1.0
  O2-  O2  1  0.55000000  0.77000000  0.48400000  1.0
  O2-  O2  1  0.55000000  0.77000000  0.68400000  1.0
  O2-  O2  1  0.55000000  0.77000000  0.88400000  1.0
  O2-  O2  1  0.77000000  0.42000000  0.11000000  1.0
  O2-  O2  1  0.77000000  0.42000000  0.31000000  1.0
  O2-  O2  1  0.77000000  0.42000000  0.51000000  1.0
  O2-  O2  1  0.77000000  0.42000000  0.71000000  1.0
  O2-  O2  1  0.77000000  0.42000000  0.91000000  1.0
  O2-  O2  1  0.42000000  0.55000000  0.15400000  1.0
  O2-  O2  1  0.42000000  0.55000000  0.35400000  1.0
  O2-  O2  1  0.42000000  0.55000000  0.55400000  1.0
  O2-  O2  1  0.42000000  0.55000000  0.75400000  1.0
  O2-  O2  1  0.42000000  0.55000000  0.95400000  1.0
  O2-  O2  1  0.05000000  0.92000000  0.05400000  1.0
  O2-  O2  1  0.05000000  0.92000000  0.25400000  1.0
  O2-  O2  1  0.05000000  0.92000000  0.45400000  1.0
  O2-  O2  1  0.05000000  0.92000000  0.65400000  1.0
  O2-  O2  1  0.05000000  0.92000000  0.85400000  1.0
  O2-  O2  1  0.92000000  0.27000000  0.01000000  1.0
  O2-  O2  1  0.92000000  0.27000000  0.21000000  1.0
  O2-  O2  1  0.92000000  0.27000000  0.41000000  1.0
  O2-  O2  1  0.92000000  0.27000000  0.61000000  1.0
  O2-  O2  1  0.92000000  0.27000000  0.81000000  1.0
  O2-  O2  1  0.27000000  0.05000000  0.18400000  1.0
  O2-  O2  1  0.27000000  0.05000000  0.38400000  1.0
  O2-  O2  1  0.27000000  0.05000000  0.58400000  1.0
  O2-  O2  1  0.27000000  0.05000000  0.78400000  1.0
  O2-  O2  1  0.27000000  0.05000000  0.98400000  1.0
