# generated using pymatgen
data_Li2ZrCl6
_symmetry_space_group_name_H-M   'P 1'
_cell_length_a   25.45470054
_cell_length_b   12.72735027
_cell_length_c   12.84400000
_cell_angle_alpha   99.77605811
_cell_angle_beta   99.77605811
_cell_angle_gamma   119.47610813
_symmetry_Int_Tables_number   1
_chemical_formula_structural   Li2ZrCl6
_chemical_formula_sum   'Li32 Zr16 Cl96'
_cell_volume   3410.66717107
_cell_formula_units_Z   16
loop_
 _symmetry_equiv_pos_site_id
 _symmetry_equiv_pos_as_xyz
  1  'x, y, z'
loop_
 _atom_type_symbol
 _atom_type_oxidation_number
  Li+  1.0
  Zr4+  4.0
  Cl-  -1.0
loop_
 _atom_site_type_symbol
 _atom_site_label
 _atom_site_symmetry_multiplicity
 _atom_site_fract_x
 _atom_site_fract_y
 _atom_site_fract_z
 _atom_site_occupancy
  Li+  Br8j  1  0.12500000  0.25000000  0.25000000  1.0
  Li+  Br8j  1  0.62500000  0.25000000  0.25000000  1.0
  Li+  Br8j  1  0.12500000  0.25000000  0.75000000  1.0
  Li+  Br8j  1  0.62500000  0.25000000  0.75000000  1.0
  Li+  Br8j  1  0.12500000  0.75000000  0.25000000  1.0
  Li+  Br8j  1  0.62500000  0.75000000  0.25000000  1.0
  Li+  Br8j  1  0.12500000  0.75000000  0.75000000  1.0
  Li+  Br8j  1  0.62500000  0.75000000  0.75000000  1.0
  Li+  Br8j  1  0.37500000  0.25000000  0.25000000  1.0
  Li+  Br8j  1  0.87500000  0.25000000  0.25000000  1.0
  Li+  Br8j  1  0.37500000  0.25000000  0.75000000  1.0
  Li+  Br8j  1  0.87500000  0.25000000  0.75000000  1.0
  Li+  Br8j  1  0.37500000  0.75000000  0.25000000  1.0
  Li+  Br8j  1  0.87500000  0.75000000  0.25000000  1.0
  Li+  Br8j  1  0.37500000  0.75000000  0.75000000  1.0
  Li+  Br8j  1  0.87500000  0.75000000  0.75000000  1.0
  Li+  Li8  1  0.21262500  0.07475000  0.25000000  1.0
  Li+  Li8  1  0.71262500  0.07475000  0.25000000  1.0
  Li+  Li9  1  0.21262500  0.57475000  0.25000000  1.0
  Li+  Li9  1  0.71262500  0.57475000  0.25000000  1.0
  Li+  Li10  1  0.46262500  0.07475000  0.25000000  1.0
  Li+  Li10  1  0.96262500  0.07475000  0.25000000  1.0
  Li+  Li11  1  0.46262500  0.57475000  0.75000000  1.0
  Li+  Li11  1  0.96262500  0.57475000  0.75000000  1.0
  Li+  Li12  1  0.03737500  0.42525000  0.25000000  1.0
  Li+  Li12  1  0.53737500  0.42525000  0.25000000  1.0
  Li+  Li13  1  0.03737500  0.42525000  0.75000000  1.0
  Li+  Li13  1  0.53737500  0.42525000  0.75000000  1.0
  Li+  Li14  1  0.28737500  0.42525000  0.25000000  1.0
  Li+  Li14  1  0.78737500  0.42525000  0.25000000  1.0
  Li+  Li15  1  0.28737500  0.92525000  0.75000000  1.0
  Li+  Li15  1  0.78737500  0.92525000  0.75000000  1.0
  Zr4+  Zr16  1  0.00000000  0.00000000  0.50000000  1.0
  Zr4+  Zr16  1  0.50000000  0.00000000  0.50000000  1.0
  Zr4+  Zr17  1  0.00000000  0.50000000  0.50000000  1.0
  Zr4+  Zr17  1  0.50000000  0.50000000  0.50000000  1.0
  Zr4+  Zr18  1  0.16675000  0.16650000  0.50000000  1.0
  Zr4+  Zr18  1  0.66675000  0.16650000  0.50000000  1.0
  Zr4+  Zr19  1  0.16675000  0.66650000  0.50000000  1.0
  Zr4+  Zr19  1  0.66675000  0.66650000  0.50000000  1.0
  Zr4+  Zr20  1  0.16675000  0.66650000  0.00000000  1.0
  Zr4+  Zr20  1  0.66675000  0.66650000  0.00000000  1.0
  Zr4+  Zr21  1  0.41675000  0.16650000  0.00000000  1.0
  Zr4+  Zr21  1  0.91675000  0.16650000  0.00000000  1.0
  Zr4+  Zr22  1  0.41675000  0.66650000  0.00000000  1.0
  Zr4+  Zr22  1  0.91675000  0.66650000  0.00000000  1.0
  Zr4+  Zr23  1  0.08325000  0.83350000  0.00000000  1.0
  Zr4+  Zr23  1  0.58325000  0.83350000  1.00000000  1.0
  Cl-  Br8j  1  0.16000000  0.49000000  0.38080000  1.0
  Cl-  Br8j  1  0.66000000  0.49000000  0.38080000  1.0
  Cl-  Br8j  1  0.16000000  0.49000000  0.88080000  1.0
  Cl-  Br8j  1  0.66000000  0.49000000  0.88080000  1.0
  Cl-  Br8j  1  0.16000000  0.99000000  0.38080000  1.0
  Cl-  Br8j  1  0.66000000  0.99000000  0.38080000  1.0
  Cl-  Br8j  1  0.16000000  0.99000000  0.88080000  1.0
  Cl-  Br8j  1  0.66000000  0.99000000  0.88080000  1.0
  Cl-  Br8j  1  0.41000000  0.49000000  0.38080000  1.0
  Cl-  Br8j  1  0.91000000  0.49000000  0.38080000  1.0
  Cl-  Br8j  1  0.41000000  0.49000000  0.88080000  1.0
  Cl-  Br8j  1  0.91000000  0.49000000  0.88080000  1.0
  Cl-  Br8j  1  0.41000000  0.99000000  0.38080000  1.0
  Cl-  Br8j  1  0.91000000  0.99000000  0.38080000  1.0
  Cl-  Br8j  1  0.41000000  0.99000000  0.88080000  1.0
  Cl-  Br8j  1  0.91000000  0.99000000  0.88080000  1.0
  Cl-  Br8j  1  0.09000000  0.01000000  0.11920000  1.0
  Cl-  Br8j  1  0.59000000  0.01000000  0.11920000  1.0
  Cl-  Br8j  1  0.09000000  0.01000000  0.61920000  1.0
  Cl-  Br8j  1  0.59000000  0.01000000  0.61920000  1.0
  Cl-  Br8j  1  0.09000000  0.51000000  0.11920000  1.0
  Cl-  Br8j  1  0.59000000  0.51000000  0.11920000  1.0
  Cl-  Br8j  1  0.09000000  0.51000000  0.61920000  1.0
  Cl-  Br8j  1  0.59000000  0.51000000  0.61920000  1.0
  Cl-  Br8j  1  0.34000000  0.01000000  0.11920000  1.0
  Cl-  Br8j  1  0.84000000  0.01000000  0.11920000  1.0
  Cl-  Br8j  1  0.34000000  0.01000000  0.61920000  1.0
  Cl-  Br8j  1  0.84000000  0.01000000  0.61920000  1.0
  Cl-  Br8j  1  0.34000000  0.51000000  0.11920000  1.0
  Cl-  Br8j  1  0.84000000  0.51000000  0.11920000  1.0
  Cl-  Br8j  1  0.34000000  0.51000000  0.61920000  1.0
  Cl-  Br8j  1  0.84000000  0.51000000  0.61920000  1.0
  Cl-  Br8j  1  0.00500000  0.18000000  0.11920000  1.0
  Cl-  Br8j  1  0.50500000  0.18000000  0.11920000  1.0
  Cl-  Br8j  1  0.00500000  0.18000000  0.61920000  1.0
  Cl-  Br8j  1  0.50500000  0.18000000  0.61920000  1.0
  Cl-  Br8j  1  0.00500000  0.68000000  0.11920000  1.0
  Cl-  Br8j  1  0.50500000  0.68000000  0.11920000  1.0
  Cl-  Br8j  1  0.00500000  0.68000000  0.61920000  1.0
  Cl-  Br8j  1  0.50500000  0.68000000  0.61920000  1.0
  Cl-  Br8j  1  0.25500000  0.18000000  0.11920000  1.0
  Cl-  Br8j  1  0.75500000  0.18000000  0.11920000  1.0
  Cl-  Br8j  1  0.25500000  0.18000000  0.61920000  1.0
  Cl-  Br8j  1  0.75500000  0.18000000  0.61920000  1.0
  Cl-  Br8j  1  0.25500000  0.68000000  0.11920000  1.0
  Cl-  Br8j  1  0.75500000  0.68000000  0.11920000  1.0
  Cl-  Br8j  1  0.25500000  0.68000000  0.61920000  1.0
  Cl-  Br8j  1  0.75500000  0.68000000  0.61920000  1.0
  Cl-  Br8j  1  0.24500000  0.32000000  0.38080000  1.0
  Cl-  Br8j  1  0.74500000  0.32000000  0.38080000  1.0
  Cl-  Br8j  1  0.24500000  0.32000000  0.88080000  1.0
  Cl-  Br8j  1  0.74500000  0.32000000  0.88080000  1.0
  Cl-  Br8j  1  0.24500000  0.82000000  0.38080000  1.0
  Cl-  Br8j  1  0.74500000  0.82000000  0.38080000  1.0
  Cl-  Br8j  1  0.24500000  0.82000000  0.88080000  1.0
  Cl-  Br8j  1  0.74500000  0.82000000  0.88080000  1.0
  Cl-  Br8j  1  0.49500000  0.32000000  0.38080000  1.0
  Cl-  Br8j  1  0.99500000  0.32000000  0.38080000  1.0
  Cl-  Br8j  1  0.49500000  0.32000000  0.88080000  1.0
  Cl-  Br8j  1  0.99500000  0.32000000  0.88080000  1.0
  Cl-  Br8j  1  0.49500000  0.82000000  0.38080000  1.0
  Cl-  Br8j  1  0.99500000  0.82000000  0.38080000  1.0
  Cl-  Br8j  1  0.49500000  0.82000000  0.88080000  1.0
  Cl-  Br8j  1  0.99500000  0.82000000  0.88080000  1.0
  Cl-  Br8j  1  0.19065000  0.38130000  0.12055000  1.0
  Cl-  Br8j  1  0.69065000  0.38130000  0.12055000  1.0
  Cl-  Br8j  1  0.19065000  0.38130000  0.62055000  1.0
  Cl-  Br8j  1  0.69065000  0.38130000  0.62055000  1.0
  Cl-  Br8j  1  0.19065000  0.88130000  0.12055000  1.0
  Cl-  Br8j  1  0.69065000  0.88130000  0.12055000  1.0
  Cl-  Br8j  1  0.19065000  0.88130000  0.62055000  1.0
  Cl-  Br8j  1  0.69065000  0.88130000  0.62055000  1.0
  Cl-  Br8j  1  0.44065000  0.38130000  0.12055000  1.0
  Cl-  Br8j  1  0.94065000  0.38130000  0.12055000  1.0
  Cl-  Br8j  1  0.44065000  0.38130000  0.62055000  1.0
  Cl-  Br8j  1  0.94065000  0.38130000  0.62055000  1.0
  Cl-  Br8j  1  0.44065000  0.88130000  0.12055000  1.0
  Cl-  Br8j  1  0.94065000  0.88130000  0.12055000  1.0
  Cl-  Br8j  1  0.44065000  0.88130000  0.62055000  1.0
  Cl-  Br8j  1  0.94065000  0.88130000  0.62055000  1.0
  Cl-  Br8j  1  0.05935000  0.11870000  0.37945000  1.0
  Cl-  Br8j  1  0.55935000  0.11870000  0.37945000  1.0
  Cl-  Br8j  1  0.05935000  0.11870000  0.87945000  1.0
  Cl-  Br8j  1  0.55935000  0.11870000  0.87945000  1.0
  Cl-  Br8j  1  0.05935000  0.61870000  0.37945000  1.0
  Cl-  Br8j  1  0.55935000  0.61870000  0.37945000  1.0
  Cl-  Br8j  1  0.05935000  0.61870000  0.87945000  1.0
  Cl-  Br8j  1  0.55935000  0.61870000  0.87945000  1.0
  Cl-  Br8j  1  0.30935000  0.11870000  0.37945000  1.0
  Cl-  Br8j  1  0.80935000  0.11870000  0.37945000  1.0
  Cl-  Br8j  1  0.30935000  0.11870000  0.87945000  1.0
  Cl-  Br8j  1  0.80935000  0.11870000  0.87945000  1.0
  Cl-  Br8j  1  0.30935000  0.61870000  0.37945000  1.0
  Cl-  Br8j  1  0.80935000  0.61870000  0.37945000  1.0
  Cl-  Br8j  1  0.30935000  0.61870000  0.87945000  1.0
  Cl-  Br8j  1  0.80935000  0.61870000  0.87945000  1.0
