# generated using pymatgen
data_Li8SnGeSe8
_symmetry_space_group_name_H-M   'P 1'
_cell_length_a   13.08262000
_cell_length_b   14.88040000
_cell_length_c   16.41644000
_cell_angle_alpha   90.00000000
_cell_angle_beta   90.00000000
_cell_angle_gamma   90.00000000
_symmetry_Int_Tables_number   1
_chemical_formula_structural   Li8SnGeSe8
_chemical_formula_sum   'Li64 Sn8 Ge8 Se64'
_cell_volume   3195.86419656
_cell_formula_units_Z   8
loop_
 _symmetry_equiv_pos_site_id
 _symmetry_equiv_pos_as_xyz
  1  'x, y, z'
loop_
 _atom_type_symbol
 _atom_type_oxidation_number
  Li+  1.0
  Sn4+  4.0
  Ge4+  4.0
  Se2-  -2.0
loop_
 _atom_site_type_symbol
 _atom_site_label
 _atom_site_symmetry_multiplicity
 _atom_site_fract_x
 _atom_site_fract_y
 _atom_site_fract_z
 _atom_site_occupancy
  Li+  Li0  1  0.31190000  0.41160000  0.62500000  1.0
  Li+  Li1  1  0.31190000  0.41160000  0.12500000  1.0
  Li+  Li2  1  0.81303840  0.41207791  0.62864308  1.0
  Li+  Li3  1  0.81394989  0.41246301  0.12178141  1.0
  Li+  Li4  1  0.18635606  0.58979137  0.37615478  1.0
  Li+  Li5  1  0.19028318  0.58446000  0.87652101  1.0
  Li+  Li6  1  0.68810000  0.58840000  0.37500000  1.0
  Li+  Li7  1  0.68810000  0.58840000  0.87500000  1.0
  Li+  Li8  1  0.06190000  0.08840000  0.37500000  1.0
  Li+  Li9  1  0.06190000  0.08840000  0.87500000  1.0
  Li+  Li10  1  0.56190000  0.08840000  0.37500000  1.0
  Li+  Li11  1  0.56190000  0.08840000  0.87500000  1.0
  Li+  Li12  1  0.43810000  0.91160000  0.62500000  1.0
  Li+  Li13  1  0.43810000  0.91160000  0.12500000  1.0
  Li+  Li14  1  0.93810000  0.91160000  0.62500000  1.0
  Li+  Li15  1  0.93632528  0.91442154  0.12488231  1.0
  Li+  Li16  1  0.26416252  0.00756244  0.74322788  1.0
  Li+  Li17  1  0.26809372  0.00085505  0.23910592  1.0
  Li+  Li18  1  0.76564000  0.00370000  0.74200000  1.0
  Li+  Li19  1  0.76564000  0.00370000  0.24200000  1.0
  Li+  Li20  1  0.23436000  0.99630000  0.49200000  1.0
  Li+  Li21  1  0.23436000  0.99630000  0.99200000  1.0
  Li+  Li22  1  0.01757192  0.49350359  0.25760614  1.0
  Li+  Li23  1  0.01420070  0.49885721  0.76363927  1.0
  Li+  Li24  1  0.51564000  0.49630000  0.25800000  1.0
  Li+  Li25  1  0.51564000  0.49630000  0.75800000  1.0
  Li+  Li26  1  0.51564000  0.49630000  0.49200000  1.0
  Li+  Li27  1  0.51293333  0.49392392  0.99275634  1.0
  Li+  Li28  1  0.76564000  0.00370000  0.50800000  1.0
  Li+  Li29  1  0.76564000  0.00370000  0.00800000  1.0
  Li+  Li30  1  0.98436000  0.50370000  0.50800000  1.0
  Li+  Li31  1  0.98436000  0.50370000  0.00800000  1.0
  Li+  Li32  1  0.34500000  0.17600000  0.25005000  1.0
  Li+  Li33  1  0.34500000  0.17600000  0.75005000  1.0
  Li+  Li34  1  0.84500000  0.17600000  0.25005000  1.0
  Li+  Li35  1  0.84500000  0.17600000  0.75005000  1.0
  Li+  Li36  1  0.15500000  0.82400000  0.50005000  1.0
  Li+  Li37  1  0.15500000  0.82400000  0.00005000  1.0
  Li+  Li38  1  0.65500000  0.82400000  0.50005000  1.0
  Li+  Li39  1  0.65500000  0.82400000  0.00005000  1.0
  Li+  Li40  1  0.09500000  0.32400000  0.74995000  1.0
  Li+  Li41  1  0.09500000  0.32400000  0.24995000  1.0
  Li+  Li42  1  0.09500000  0.32400000  0.50005000  1.0
  Li+  Li43  1  0.09500000  0.32400000  0.00005000  1.0
  Li+  Li44  1  0.59317325  0.32007623  0.49903548  1.0
  Li+  Li45  1  0.59500000  0.32400000  0.00005000  1.0
  Li+  Li46  1  0.84500000  0.17600000  0.49995000  1.0
  Li+  Li47  1  0.84500000  0.17600000  0.99995000  1.0
  Li+  Li48  1  0.15500000  0.82400000  0.74995000  1.0
  Li+  Li49  1  0.15500000  0.82400000  0.24995000  1.0
  Li+  Li50  1  0.65440068  0.82850816  0.74791985  1.0
  Li+  Li51  1  0.65500000  0.82400000  0.24995000  1.0
  Li+  Li52  1  0.90839324  0.67875836  0.49961912  1.0
  Li+  Li53  1  0.90500000  0.67600000  0.99995000  1.0
  Li+  Li54  1  0.40500000  0.67600000  0.25005000  1.0
  Li+  Li55  1  0.40500000  0.67600000  0.75005000  1.0
  Li+  Li56  1  0.90500000  0.67600000  0.25005000  1.0
  Li+  Li57  1  0.90500000  0.67600000  0.75005000  1.0
  Li+  Li58  1  0.09146187  0.83620018  0.49897683  1.0
  Li+  Li59  1  0.09050000  0.83600000  0.00100000  1.0
  Li+  Li60  1  0.65950000  0.33600000  0.74900000  1.0
  Li+  Li61  1  0.65950000  0.33600000  0.24900000  1.0
  Li+  Li62  1  0.34426770  0.66358309  0.49433610  1.0
  Li+  Li63  1  0.33624152  0.66827452  0.99749674  1.0
  Sn4+  Sn64  1  0.82325000  0.40942000  0.37500000  1.0
  Sn4+  Sn65  1  0.82325000  0.40942000  0.87500000  1.0
  Sn4+  Sn66  1  0.17675000  0.59058000  0.62500000  1.0
  Sn4+  Sn67  1  0.17675000  0.59058000  0.12500000  1.0
  Sn4+  Sn68  1  0.07325000  0.09058000  0.62500000  1.0
  Sn4+  Sn69  1  0.07325000  0.09058000  0.12500000  1.0
  Sn4+  Sn70  1  0.42675000  0.90942000  0.37500000  1.0
  Sn4+  Sn71  1  0.42675000  0.90942000  0.87500000  1.0
  Ge4+  Ge72  1  0.32328378  0.40945987  0.37524967  1.0
  Ge4+  Ge73  1  0.32325000  0.40942000  0.87500000  1.0
  Ge4+  Ge74  1  0.67675000  0.59058000  0.62500000  1.0
  Ge4+  Ge75  1  0.67615869  0.58908112  0.12524538  1.0
  Ge4+  Ge76  1  0.57325000  0.09058000  0.62500000  1.0
  Ge4+  Ge77  1  0.57325000  0.09058000  0.12500000  1.0
  Ge4+  Ge78  1  0.92675000  0.90942000  0.37500000  1.0
  Ge4+  Ge79  1  0.92675000  0.90942000  0.87500000  1.0
  Se2-  Se80  1  0.39005711  0.34076638  0.25255650  1.0
  Se2-  Se81  1  0.39050000  0.34076000  0.75245000  1.0
  Se2-  Se82  1  0.89050000  0.34076000  0.25245000  1.0
  Se2-  Se83  1  0.89327336  0.34137439  0.75322411  1.0
  Se2-  Se84  1  0.10950000  0.65924000  0.50245000  1.0
  Se2-  Se85  1  0.10950000  0.65924000  0.00245000  1.0
  Se2-  Se86  1  0.60950000  0.65924000  0.50245000  1.0
  Se2-  Se87  1  0.60935051  0.65997245  0.00026139  1.0
  Se2-  Se88  1  0.13977089  0.15989389  0.74572586  1.0
  Se2-  Se89  1  0.14050000  0.15924000  0.24755000  1.0
  Se2-  Se90  1  0.64050000  0.15924000  0.74755000  1.0
  Se2-  Se91  1  0.64050000  0.15924000  0.24755000  1.0
  Se2-  Se92  1  0.14050000  0.15924000  0.50245000  1.0
  Se2-  Se93  1  0.14050000  0.15924000  0.00245000  1.0
  Se2-  Se94  1  0.64050000  0.15924000  0.50245000  1.0
  Se2-  Se95  1  0.64050000  0.15924000  0.00245000  1.0
  Se2-  Se96  1  0.39050000  0.34076000  0.49755000  1.0
  Se2-  Se97  1  0.39050000  0.34076000  0.99755000  1.0
  Se2-  Se98  1  0.89100677  0.34397748  0.49646081  1.0
  Se2-  Se99  1  0.89050000  0.34076000  0.99755000  1.0
  Se2-  Se100  1  0.10950000  0.65924000  0.74755000  1.0
  Se2-  Se101  1  0.11332756  0.66169159  0.24767039  1.0
  Se2-  Se102  1  0.60950000  0.65924000  0.74755000  1.0
  Se2-  Se103  1  0.60950000  0.65924000  0.24755000  1.0
  Se2-  Se104  1  0.35950000  0.84076000  0.49755000  1.0
  Se2-  Se105  1  0.35950000  0.84076000  0.99755000  1.0
  Se2-  Se106  1  0.86408453  0.84011269  0.49503661  1.0
  Se2-  Se107  1  0.85950000  0.84076000  0.99755000  1.0
  Se2-  Se108  1  0.35801866  0.84139635  0.25593288  1.0
  Se2-  Se109  1  0.35905050  0.84458446  0.75579848  1.0
  Se2-  Se110  1  0.85950000  0.84076000  0.25245000  1.0
  Se2-  Se111  1  0.86159878  0.84088059  0.75062650  1.0
  Se2-  Se112  1  0.38790000  0.08518000  0.62500000  1.0
  Se2-  Se113  1  0.38790000  0.08518000  0.12500000  1.0
  Se2-  Se114  1  0.88790000  0.08518000  0.62500000  1.0
  Se2-  Se115  1  0.88790000  0.08518000  0.12500000  1.0
  Se2-  Se116  1  0.11210000  0.91482000  0.37500000  1.0
  Se2-  Se117  1  0.11210000  0.91482000  0.87500000  1.0
  Se2-  Se118  1  0.61296660  0.91114039  0.37919600  1.0
  Se2-  Se119  1  0.61210000  0.91482000  0.87500000  1.0
  Se2-  Se120  1  0.13790000  0.41482000  0.37500000  1.0
  Se2-  Se121  1  0.13725692  0.41451802  0.87277039  1.0
  Se2-  Se122  1  0.63790000  0.41482000  0.37500000  1.0
  Se2-  Se123  1  0.63520361  0.41449832  0.87467009  1.0
  Se2-  Se124  1  0.36210000  0.58518000  0.62500000  1.0
  Se2-  Se125  1  0.36210000  0.58518000  0.12500000  1.0
  Se2-  Se126  1  0.86210000  0.58518000  0.62500000  1.0
  Se2-  Se127  1  0.86210000  0.58518000  0.12500000  1.0
  Se2-  Se128  1  0.36385000  0.06468000  0.37500000  1.0
  Se2-  Se129  1  0.36385000  0.06468000  0.87500000  1.0
  Se2-  Se130  1  0.86385000  0.06468000  0.37500000  1.0
  Se2-  Se131  1  0.86385000  0.06468000  0.87500000  1.0
  Se2-  Se132  1  0.13615000  0.93532000  0.62500000  1.0
  Se2-  Se133  1  0.13615000  0.93532000  0.12500000  1.0
  Se2-  Se134  1  0.63615000  0.93532000  0.62500000  1.0
  Se2-  Se135  1  0.63455062  0.93258245  0.12686165  1.0
  Se2-  Se136  1  0.11363602  0.43197684  0.62232629  1.0
  Se2-  Se137  1  0.11385000  0.43532000  0.12500000  1.0
  Se2-  Se138  1  0.61385000  0.43532000  0.62500000  1.0
  Se2-  Se139  1  0.61385000  0.43532000  0.12500000  1.0
  Se2-  Se140  1  0.38157793  0.56506931  0.37666568  1.0
  Se2-  Se141  1  0.38521929  0.56325167  0.87537124  1.0
  Se2-  Se142  1  0.88615000  0.56468000  0.37500000  1.0
  Se2-  Se143  1  0.88725080  0.56802635  0.87706724  1.0
