# generated using pymatgen
data_Li8SnGeSe8
_symmetry_space_group_name_H-M   'P 1'
_cell_length_a   16.47240844
_cell_length_b   13.12722248
_cell_length_c   14.93113163
_cell_angle_alpha   90.00000000
_cell_angle_beta   90.00000000
_cell_angle_gamma   90.00000000
_symmetry_Int_Tables_number   1
_chemical_formula_structural   Li8SnGeSe8
_chemical_formula_sum   'Li64 Sn8 Ge8 Se64'
_cell_volume   3228.66266792
_cell_formula_units_Z   8
loop_
 _symmetry_equiv_pos_site_id
 _symmetry_equiv_pos_as_xyz
  1  'x, y, z'
loop_
 _atom_type_symbol
 _atom_type_oxidation_number
  Li+  1.0
  Sn4+  4.0
  Ge4+  4.0
  Se2-  -2.0
loop_
 _atom_site_type_symbol
 _atom_site_label
 _atom_site_symmetry_multiplicity
 _atom_site_fract_x
 _atom_site_fract_y
 _atom_site_fract_z
 _atom_site_occupancy
  Li+  Li0  1  0.87500000  0.35476667  0.58840000  1.0
  Li+  Li1  1  0.37500000  0.35476667  0.58840000  1.0
  Li+  Li2  1  0.87500000  0.85476667  0.58840000  1.0
  Li+  Li3  1  0.37500000  0.85476667  0.58840000  1.0
  Li+  Li4  1  0.62500000  0.47856667  0.41160000  1.0
  Li+  Li5  1  0.12500000  0.47856667  0.41160000  1.0
  Li+  Li6  1  0.62500000  0.97856667  0.41160000  1.0
  Li+  Li7  1  0.12500000  0.97856667  0.41160000  1.0
  Li+  Li8  1  0.62500000  0.60476667  0.91160000  1.0
  Li+  Li9  1  0.12500000  0.60476667  0.91160000  1.0
  Li+  Li10  1  0.62500000  0.10476667  0.91160000  1.0
  Li+  Li11  1  0.12500000  0.10476667  0.91160000  1.0
  Li+  Li12  1  0.87500000  0.22856667  0.08840000  1.0
  Li+  Li13  1  0.37500000  0.22856667  0.08840000  1.0
  Li+  Li14  1  0.87500000  0.72856667  0.08840000  1.0
  Li+  Li15  1  0.37500000  0.72856667  0.08840000  1.0
  Li+  Li16  1  0.99200000  0.40102667  0.99630000  1.0
  Li+  Li17  1  0.49200000  0.40102667  0.99630000  1.0
  Li+  Li18  1  0.99200000  0.90102667  0.99630000  1.0
  Li+  Li19  1  0.49200000  0.90102667  0.99630000  1.0
  Li+  Li20  1  0.74200000  0.43230667  0.00370000  1.0
  Li+  Li21  1  0.24200000  0.43230667  0.00370000  1.0
  Li+  Li22  1  0.50800000  0.65102667  0.50370000  1.0
  Li+  Li23  1  0.00800000  0.65102667  0.50370000  1.0
  Li+  Li24  1  0.50800000  0.15102667  0.50370000  1.0
  Li+  Li25  1  0.00800000  0.15102667  0.50370000  1.0
  Li+  Li26  1  0.74200000  0.15102667  0.50370000  1.0
  Li+  Li27  1  0.24200000  0.15102667  0.50370000  1.0
  Li+  Li28  1  0.75800000  0.90102667  0.99630000  1.0
  Li+  Li29  1  0.25800000  0.90102667  0.99630000  1.0
  Li+  Li30  1  0.75800000  0.68230667  0.49630000  1.0
  Li+  Li31  1  0.25800000  0.68230667  0.49630000  1.0
  Li+  Li32  1  0.50005000  0.32166667  0.82400000  1.0
  Li+  Li33  1  0.00005000  0.32166667  0.82400000  1.0
  Li+  Li34  1  0.50005000  0.82166667  0.82400000  1.0
  Li+  Li35  1  0.00005000  0.82166667  0.82400000  1.0
  Li+  Li36  1  0.75005000  0.51166667  0.17600000  1.0
  Li+  Li37  1  0.25005000  0.51166667  0.17600000  1.0
  Li+  Li38  1  0.75005000  0.01166667  0.17600000  1.0
  Li+  Li39  1  0.25005000  0.01166667  0.17600000  1.0
  Li+  Li40  1  0.99995000  0.57166667  0.67600000  1.0
  Li+  Li41  1  0.49995000  0.57166667  0.67600000  1.0
  Li+  Li42  1  0.75005000  0.57166667  0.67600000  1.0
  Li+  Li43  1  0.25005000  0.57166667  0.67600000  1.0
  Li+  Li44  1  0.75005000  0.07166667  0.67600000  1.0
  Li+  Li45  1  0.25005000  0.07166667  0.67600000  1.0
  Li+  Li46  1  0.74995000  0.82166667  0.82400000  1.0
  Li+  Li47  1  0.24995000  0.82166667  0.82400000  1.0
  Li+  Li48  1  0.99995000  0.51166667  0.17600000  1.0
  Li+  Li49  1  0.49995000  0.51166667  0.17600000  1.0
  Li+  Li50  1  0.99995000  0.01166667  0.17600000  1.0
  Li+  Li51  1  0.49995000  0.01166667  0.17600000  1.0
  Li+  Li52  1  0.74995000  0.76166667  0.32400000  1.0
  Li+  Li53  1  0.24995000  0.76166667  0.32400000  1.0
  Li+  Li54  1  0.50005000  0.26166667  0.32400000  1.0
  Li+  Li55  1  0.00005000  0.26166667  0.32400000  1.0
  Li+  Li56  1  0.50005000  0.76166667  0.32400000  1.0
  Li+  Li57  1  0.00005000  0.76166667  0.32400000  1.0
  Li+  Li58  1  0.75100000  0.57616667  0.16400000  1.0
  Li+  Li59  1  0.25100000  0.57616667  0.16400000  1.0
  Li+  Li60  1  0.99900000  0.00716667  0.66400000  1.0
  Li+  Li61  1  0.49900000  0.00716667  0.66400000  1.0
  Li+  Li62  1  0.74900000  0.32616667  0.33600000  1.0
  Li+  Li63  1  0.24900000  0.32616667  0.33600000  1.0
  Sn4+  Sn64  1  0.62500000  0.84341667  0.59058000  1.0
  Sn4+  Sn65  1  0.12500000  0.84341667  0.59058000  1.0
  Sn4+  Sn66  1  0.87500000  0.48991667  0.40942000  1.0
  Sn4+  Sn67  1  0.37500000  0.48991667  0.40942000  1.0
  Sn4+  Sn68  1  0.87500000  0.59341667  0.90942000  1.0
  Sn4+  Sn69  1  0.37500000  0.59341667  0.90942000  1.0
  Sn4+  Sn70  1  0.62500000  0.23991667  0.09058000  1.0
  Sn4+  Sn71  1  0.12500000  0.23991667  0.09058000  1.0
  Ge4+  Ge72  1  0.62500000  0.34341667  0.59058000  1.0
  Ge4+  Ge73  1  0.12500000  0.34341667  0.59058000  1.0
  Ge4+  Ge74  1  0.87500000  0.98991667  0.40942000  1.0
  Ge4+  Ge75  1  0.37500000  0.98991667  0.40942000  1.0
  Ge4+  Ge76  1  0.87500000  0.09341667  0.90942000  1.0
  Ge4+  Ge77  1  0.37500000  0.09341667  0.90942000  1.0
  Ge4+  Ge78  1  0.62500000  0.73991667  0.09058000  1.0
  Ge4+  Ge79  1  0.12500000  0.73991667  0.09058000  1.0
  Se2-  Se80  1  0.50245000  0.27616667  0.65924000  1.0
  Se2-  Se81  1  0.00245000  0.27616667  0.65924000  1.0
  Se2-  Se82  1  0.50245000  0.77616667  0.65924000  1.0
  Se2-  Se83  1  0.00245000  0.77616667  0.65924000  1.0
  Se2-  Se84  1  0.75245000  0.55716667  0.34076000  1.0
  Se2-  Se85  1  0.25245000  0.55716667  0.34076000  1.0
  Se2-  Se86  1  0.75245000  0.05716667  0.34076000  1.0
  Se2-  Se87  1  0.25245000  0.05716667  0.34076000  1.0
  Se2-  Se88  1  0.99755000  0.52616667  0.84076000  1.0
  Se2-  Se89  1  0.49755000  0.52616667  0.84076000  1.0
  Se2-  Se90  1  0.99755000  0.02616667  0.84076000  1.0
  Se2-  Se91  1  0.49755000  0.02616667  0.84076000  1.0
  Se2-  Se92  1  0.75245000  0.52616667  0.84076000  1.0
  Se2-  Se93  1  0.25245000  0.52616667  0.84076000  1.0
  Se2-  Se94  1  0.75245000  0.02616667  0.84076000  1.0
  Se2-  Se95  1  0.25245000  0.02616667  0.84076000  1.0
  Se2-  Se96  1  0.74755000  0.27616667  0.65924000  1.0
  Se2-  Se97  1  0.24755000  0.27616667  0.65924000  1.0
  Se2-  Se98  1  0.74755000  0.77616667  0.65924000  1.0
  Se2-  Se99  1  0.24755000  0.77616667  0.65924000  1.0
  Se2-  Se100  1  0.99755000  0.55716667  0.34076000  1.0
  Se2-  Se101  1  0.49755000  0.55716667  0.34076000  1.0
  Se2-  Se102  1  0.99755000  0.05716667  0.34076000  1.0
  Se2-  Se103  1  0.49755000  0.05716667  0.34076000  1.0
  Se2-  Se104  1  0.74755000  0.30716667  0.15924000  1.0
  Se2-  Se105  1  0.24755000  0.30716667  0.15924000  1.0
  Se2-  Se106  1  0.74755000  0.80716667  0.15924000  1.0
  Se2-  Se107  1  0.24755000  0.80716667  0.15924000  1.0
  Se2-  Se108  1  0.50245000  0.30716667  0.15924000  1.0
  Se2-  Se109  1  0.00245000  0.30716667  0.15924000  1.0
  Se2-  Se110  1  0.50245000  0.80716667  0.15924000  1.0
  Se2-  Se111  1  0.00245000  0.80716667  0.15924000  1.0
  Se2-  Se112  1  0.87500000  0.27876667  0.91482000  1.0
  Se2-  Se113  1  0.37500000  0.27876667  0.91482000  1.0
  Se2-  Se114  1  0.87500000  0.77876667  0.91482000  1.0
  Se2-  Se115  1  0.37500000  0.77876667  0.91482000  1.0
  Se2-  Se116  1  0.62500000  0.55456667  0.08518000  1.0
  Se2-  Se117  1  0.12500000  0.55456667  0.08518000  1.0
  Se2-  Se118  1  0.62500000  0.05456667  0.08518000  1.0
  Se2-  Se119  1  0.12500000  0.05456667  0.08518000  1.0
  Se2-  Se120  1  0.62500000  0.52876667  0.58518000  1.0
  Se2-  Se121  1  0.12500000  0.52876667  0.58518000  1.0
  Se2-  Se122  1  0.62500000  0.02876667  0.58518000  1.0
  Se2-  Se123  1  0.12500000  0.02876667  0.58518000  1.0
  Se2-  Se124  1  0.87500000  0.30456667  0.41482000  1.0
  Se2-  Se125  1  0.37500000  0.30456667  0.41482000  1.0
  Se2-  Se126  1  0.87500000  0.80456667  0.41482000  1.0
  Se2-  Se127  1  0.37500000  0.80456667  0.41482000  1.0
  Se2-  Se128  1  0.62500000  0.30281667  0.93532000  1.0
  Se2-  Se129  1  0.12500000  0.30281667  0.93532000  1.0
  Se2-  Se130  1  0.62500000  0.80281667  0.93532000  1.0
  Se2-  Se131  1  0.12500000  0.80281667  0.93532000  1.0
  Se2-  Se132  1  0.87500000  0.53051667  0.06468000  1.0
  Se2-  Se133  1  0.37500000  0.53051667  0.06468000  1.0
  Se2-  Se134  1  0.87500000  0.03051667  0.06468000  1.0
  Se2-  Se135  1  0.37500000  0.03051667  0.06468000  1.0
  Se2-  Se136  1  0.87500000  0.55281667  0.56468000  1.0
  Se2-  Se137  1  0.37500000  0.55281667  0.56468000  1.0
  Se2-  Se138  1  0.87500000  0.05281667  0.56468000  1.0
  Se2-  Se139  1  0.37500000  0.05281667  0.56468000  1.0
  Se2-  Se140  1  0.62500000  0.28051667  0.43532000  1.0
  Se2-  Se141  1  0.12500000  0.28051667  0.43532000  1.0
  Se2-  Se142  1  0.62500000  0.78051667  0.43532000  1.0
  Se2-  Se143  1  0.12500000  0.78051667  0.43532000  1.0
