# generated using pymatgen
data_Li8SnGeSe8
_symmetry_space_group_name_H-M   'P 1'
_cell_length_a   13.08262000
_cell_length_b   16.41644000
_cell_length_c   14.88040000
_cell_angle_alpha   90.00000000
_cell_angle_beta   90.00000000
_cell_angle_gamma   90.00000000
_symmetry_Int_Tables_number   1
_chemical_formula_structural   Li8SnGeSe8
_chemical_formula_sum   'Li64 Sn8 Ge8 Se64'
_cell_volume   3195.86419656
_cell_formula_units_Z   8
loop_
 _symmetry_equiv_pos_site_id
 _symmetry_equiv_pos_as_xyz
  1  'x, y, z'
loop_
 _atom_type_symbol
 _atom_type_oxidation_number
  Li+  1.0
  Sn4+  4.0
  Ge4+  4.0
  Se2-  -2.0
loop_
 _atom_site_type_symbol
 _atom_site_label
 _atom_site_symmetry_multiplicity
 _atom_site_fract_x
 _atom_site_fract_y
 _atom_site_fract_z
 _atom_site_occupancy
  Li+  Li1  1  0.31190000  0.12500000  0.58840000  1.0
  Li+  Li1  1  0.31190000  0.62500000  0.58840000  1.0
  Li+  Li1  1  0.81190000  0.12500000  0.58840000  1.0
  Li+  Li1  1  0.81190000  0.62500000  0.58840000  1.0
  Li+  Li1  1  0.18810000  0.37500000  0.41160000  1.0
  Li+  Li1  1  0.18810000  0.87500000  0.41160000  1.0
  Li+  Li1  1  0.68810000  0.37500000  0.41160000  1.0
  Li+  Li1  1  0.68810000  0.87500000  0.41160000  1.0
  Li+  Li1  1  0.06190000  0.37500000  0.91160000  1.0
  Li+  Li1  1  0.06190000  0.87500000  0.91160000  1.0
  Li+  Li1  1  0.56190000  0.37500000  0.91160000  1.0
  Li+  Li1  1  0.56190000  0.87500000  0.91160000  1.0
  Li+  Li1  1  0.43810000  0.12500000  0.08840000  1.0
  Li+  Li1  1  0.43810000  0.62500000  0.08840000  1.0
  Li+  Li1  1  0.93810000  0.12500000  0.08840000  1.0
  Li+  Li1  1  0.93810000  0.62500000  0.08840000  1.0
  Li+  Li8  1  0.26564000  0.00800000  0.99630000  1.0
  Li+  Li8  1  0.26564000  0.50800000  0.99630000  1.0
  Li+  Li9  1  0.76564000  0.00800000  0.99630000  1.0
  Li+  Li9  1  0.76564000  0.50800000  0.99630000  1.0
  Li+  Li10  1  0.23436000  0.25800000  0.00370000  1.0
  Li+  Li10  1  0.23436000  0.75800000  0.00370000  1.0
  Li+  Li11  1  0.01564000  0.49200000  0.50370000  1.0
  Li+  Li11  1  0.01564000  0.99200000  0.50370000  1.0
  Li+  Li12  1  0.51564000  0.49200000  0.50370000  1.0
  Li+  Li12  1  0.51564000  0.99200000  0.50370000  1.0
  Li+  Li13  1  0.51564000  0.25800000  0.50370000  1.0
  Li+  Li13  1  0.51564000  0.75800000  0.50370000  1.0
  Li+  Li14  1  0.76564000  0.24200000  0.99630000  1.0
  Li+  Li14  1  0.76564000  0.74200000  0.99630000  1.0
  Li+  Li15  1  0.98436000  0.24200000  0.49630000  1.0
  Li+  Li15  1  0.98436000  0.74200000  0.49630000  1.0
  Li+  Li16  1  0.34500000  0.49995000  0.82400000  1.0
  Li+  Li16  1  0.34500000  0.99995000  0.82400000  1.0
  Li+  Li17  1  0.84500000  0.49995000  0.82400000  1.0
  Li+  Li17  1  0.84500000  0.99995000  0.82400000  1.0
  Li+  Li18  1  0.15500000  0.24995000  0.17600000  1.0
  Li+  Li18  1  0.15500000  0.74995000  0.17600000  1.0
  Li+  Li19  1  0.65500000  0.24995000  0.17600000  1.0
  Li+  Li19  1  0.65500000  0.74995000  0.17600000  1.0
  Li+  Li20  1  0.09500000  0.00005000  0.67600000  1.0
  Li+  Li20  1  0.09500000  0.50005000  0.67600000  1.0
  Li+  Li21  1  0.09500000  0.24995000  0.67600000  1.0
  Li+  Li21  1  0.09500000  0.74995000  0.67600000  1.0
  Li+  Li22  1  0.59500000  0.24995000  0.67600000  1.0
  Li+  Li22  1  0.59500000  0.74995000  0.67600000  1.0
  Li+  Li23  1  0.84500000  0.25005000  0.82400000  1.0
  Li+  Li23  1  0.84500000  0.75005000  0.82400000  1.0
  Li+  Li24  1  0.15500000  0.00005000  0.17600000  1.0
  Li+  Li24  1  0.15500000  0.50005000  0.17600000  1.0
  Li+  Li25  1  0.65500000  0.00005000  0.17600000  1.0
  Li+  Li25  1  0.65500000  0.50005000  0.17600000  1.0
  Li+  Li26  1  0.90500000  0.25005000  0.32400000  1.0
  Li+  Li26  1  0.90500000  0.75005000  0.32400000  1.0
  Li+  Li27  1  0.40500000  0.49995000  0.32400000  1.0
  Li+  Li27  1  0.40500000  0.99995000  0.32400000  1.0
  Li+  Li28  1  0.90500000  0.49995000  0.32400000  1.0
  Li+  Li28  1  0.90500000  0.99995000  0.32400000  1.0
  Li+  Li29  1  0.09050000  0.24900000  0.16400000  1.0
  Li+  Li29  1  0.09050000  0.74900000  0.16400000  1.0
  Li+  Li30  1  0.65950000  0.00100000  0.66400000  1.0
  Li+  Li30  1  0.65950000  0.50100000  0.66400000  1.0
  Li+  Li31  1  0.34050000  0.25100000  0.33600000  1.0
  Li+  Li31  1  0.34050000  0.75100000  0.33600000  1.0
  Sn4+  Sn32  1  0.82325000  0.37500000  0.59058000  1.0
  Sn4+  Sn32  1  0.82325000  0.87500000  0.59058000  1.0
  Sn4+  Sn33  1  0.17675000  0.12500000  0.40942000  1.0
  Sn4+  Sn33  1  0.17675000  0.62500000  0.40942000  1.0
  Sn4+  Sn34  1  0.07325000  0.12500000  0.90942000  1.0
  Sn4+  Sn34  1  0.07325000  0.62500000  0.90942000  1.0
  Sn4+  Sn35  1  0.42675000  0.37500000  0.09058000  1.0
  Sn4+  Sn35  1  0.42675000  0.87500000  0.09058000  1.0
  Ge4+  Ge36  1  0.32325000  0.37500000  0.59058000  1.0
  Ge4+  Ge36  1  0.32325000  0.87500000  0.59058000  1.0
  Ge4+  Ge37  1  0.67675000  0.12500000  0.40942000  1.0
  Ge4+  Ge37  1  0.67675000  0.62500000  0.40942000  1.0
  Ge4+  Ge38  1  0.57325000  0.12500000  0.90942000  1.0
  Ge4+  Ge38  1  0.57325000  0.62500000  0.90942000  1.0
  Ge4+  Ge39  1  0.92675000  0.37500000  0.09058000  1.0
  Ge4+  Ge39  1  0.92675000  0.87500000  0.09058000  1.0
  Se2-  Se1  1  0.39050000  0.49755000  0.65924000  1.0
  Se2-  Se1  1  0.39050000  0.99755000  0.65924000  1.0
  Se2-  Se1  1  0.89050000  0.49755000  0.65924000  1.0
  Se2-  Se1  1  0.89050000  0.99755000  0.65924000  1.0
  Se2-  Se1  1  0.10950000  0.24755000  0.34076000  1.0
  Se2-  Se1  1  0.10950000  0.74755000  0.34076000  1.0
  Se2-  Se1  1  0.60950000  0.24755000  0.34076000  1.0
  Se2-  Se1  1  0.60950000  0.74755000  0.34076000  1.0
  Se2-  Se1  1  0.14050000  0.00245000  0.84076000  1.0
  Se2-  Se1  1  0.14050000  0.50245000  0.84076000  1.0
  Se2-  Se1  1  0.64050000  0.00245000  0.84076000  1.0
  Se2-  Se1  1  0.64050000  0.50245000  0.84076000  1.0
  Se2-  Se1  1  0.14050000  0.24755000  0.84076000  1.0
  Se2-  Se1  1  0.14050000  0.74755000  0.84076000  1.0
  Se2-  Se1  1  0.64050000  0.24755000  0.84076000  1.0
  Se2-  Se1  1  0.64050000  0.74755000  0.84076000  1.0
  Se2-  Se1  1  0.39050000  0.25245000  0.65924000  1.0
  Se2-  Se1  1  0.39050000  0.75245000  0.65924000  1.0
  Se2-  Se1  1  0.89050000  0.25245000  0.65924000  1.0
  Se2-  Se1  1  0.89050000  0.75245000  0.65924000  1.0
  Se2-  Se1  1  0.10950000  0.00245000  0.34076000  1.0
  Se2-  Se1  1  0.10950000  0.50245000  0.34076000  1.0
  Se2-  Se1  1  0.60950000  0.00245000  0.34076000  1.0
  Se2-  Se1  1  0.60950000  0.50245000  0.34076000  1.0
  Se2-  Se1  1  0.35950000  0.25245000  0.15924000  1.0
  Se2-  Se1  1  0.35950000  0.75245000  0.15924000  1.0
  Se2-  Se1  1  0.85950000  0.25245000  0.15924000  1.0
  Se2-  Se1  1  0.85950000  0.75245000  0.15924000  1.0
  Se2-  Se1  1  0.35950000  0.49755000  0.15924000  1.0
  Se2-  Se1  1  0.35950000  0.99755000  0.15924000  1.0
  Se2-  Se1  1  0.85950000  0.49755000  0.15924000  1.0
  Se2-  Se1  1  0.85950000  0.99755000  0.15924000  1.0
  Se2-  Se2  1  0.38790000  0.12500000  0.91482000  1.0
  Se2-  Se2  1  0.38790000  0.62500000  0.91482000  1.0
  Se2-  Se2  1  0.88790000  0.12500000  0.91482000  1.0
  Se2-  Se2  1  0.88790000  0.62500000  0.91482000  1.0
  Se2-  Se2  1  0.11210000  0.37500000  0.08518000  1.0
  Se2-  Se2  1  0.11210000  0.87500000  0.08518000  1.0
  Se2-  Se2  1  0.61210000  0.37500000  0.08518000  1.0
  Se2-  Se2  1  0.61210000  0.87500000  0.08518000  1.0
  Se2-  Se2  1  0.13790000  0.37500000  0.58518000  1.0
  Se2-  Se2  1  0.13790000  0.87500000  0.58518000  1.0
  Se2-  Se2  1  0.63790000  0.37500000  0.58518000  1.0
  Se2-  Se2  1  0.63790000  0.87500000  0.58518000  1.0
  Se2-  Se2  1  0.36210000  0.12500000  0.41482000  1.0
  Se2-  Se2  1  0.36210000  0.62500000  0.41482000  1.0
  Se2-  Se2  1  0.86210000  0.12500000  0.41482000  1.0
  Se2-  Se2  1  0.86210000  0.62500000  0.41482000  1.0
  Se2-  Se3  1  0.36385000  0.37500000  0.93532000  1.0
  Se2-  Se3  1  0.36385000  0.87500000  0.93532000  1.0
  Se2-  Se3  1  0.86385000  0.37500000  0.93532000  1.0
  Se2-  Se3  1  0.86385000  0.87500000  0.93532000  1.0
  Se2-  Se3  1  0.13615000  0.12500000  0.06468000  1.0
  Se2-  Se3  1  0.13615000  0.62500000  0.06468000  1.0
  Se2-  Se3  1  0.63615000  0.12500000  0.06468000  1.0
  Se2-  Se3  1  0.63615000  0.62500000  0.06468000  1.0
  Se2-  Se3  1  0.11385000  0.12500000  0.56468000  1.0
  Se2-  Se3  1  0.11385000  0.62500000  0.56468000  1.0
  Se2-  Se3  1  0.61385000  0.12500000  0.56468000  1.0
  Se2-  Se3  1  0.61385000  0.62500000  0.56468000  1.0
  Se2-  Se3  1  0.38615000  0.37500000  0.43532000  1.0
  Se2-  Se3  1  0.38615000  0.87500000  0.43532000  1.0
  Se2-  Se3  1  0.88615000  0.37500000  0.43532000  1.0
  Se2-  Se3  1  0.88615000  0.87500000  0.43532000  1.0
