# generated using pymatgen
data_Li6PSe2S3I
_symmetry_space_group_name_H-M   'P 1'
_cell_length_a   14.56781391
_cell_length_b   14.56781391
_cell_length_c   14.56781391
_cell_angle_alpha   60.00000000
_cell_angle_beta   120.00000000
_cell_angle_gamma   120.00000000
_symmetry_Int_Tables_number   1
_chemical_formula_structural   Li6PSe2S3I
_chemical_formula_sum   'Li48 P8 Se16 S24 I8'
_cell_volume   2186.09060360
_cell_formula_units_Z   8
loop_
 _symmetry_equiv_pos_site_id
 _symmetry_equiv_pos_as_xyz
  1  'x, y, z'
loop_
 _atom_type_symbol
 _atom_type_oxidation_number
  Li+  1.0
  P5+  5.0
  Se2-  -2.0
  S2-  -2.0
  I-  -1.0
loop_
 _atom_site_type_symbol
 _atom_site_label
 _atom_site_symmetry_multiplicity
 _atom_site_fract_x
 _atom_site_fract_y
 _atom_site_fract_z
 _atom_site_occupancy
  Li+  Li0  1  0.24100000  0.75900000  0.24100000  1.0
  Li+  Li1  1  0.00615838  0.26089779  0.01361838  1.0
  Li+  Li2  1  0.51173999  0.75735688  0.50774231  1.0
  Li+  Li3  1  0.50900000  0.25900000  0.50900000  1.0
  Li+  Li4  1  0.24100000  0.99100000  0.24100000  1.0
  Li+  Li5  1  0.00900000  0.25900000  0.24100000  1.0
  Li+  Li6  1  0.50900000  0.75900000  0.74100000  1.0
  Li+  Li7  1  0.00900000  0.49100000  0.50900000  1.0
  Li+  Li8  1  0.24100000  0.49100000  0.00900000  1.0
  Li+  Li9  1  0.74100000  0.99100000  0.50900000  1.0
  Li+  Li10  1  0.19110000  0.71770000  0.73670000  1.0
  Li+  Li11  1  0.19206720  0.21737037  0.23741175  1.0
  Li+  Li12  1  0.01326826  0.80685803  0.46907120  1.0
  Li+  Li13  1  0.01330000  0.30890000  0.96770000  1.0
  Li+  Li14  1  0.51450767  0.81040604  0.47028432  1.0
  Li+  Li15  1  0.51330000  0.30890000  0.46770000  1.0
  Li+  Li16  1  0.51330000  0.30890000  0.96770000  1.0
  Li+  Li17  1  0.28230000  0.98670000  0.73670000  1.0
  Li+  Li18  1  0.28230000  0.48670000  0.23670000  1.0
  Li+  Li19  1  0.78230000  0.98670000  0.73670000  1.0
  Li+  Li20  1  0.78230000  0.48670000  0.73670000  1.0
  Li+  Li21  1  0.78070093  0.98268235  0.24080139  1.0
  Li+  Li22  1  0.78230000  0.48670000  0.23670000  1.0
  Li+  Li23  1  0.28314050  0.80648713  0.73651283  1.0
  Li+  Li24  1  0.78230000  0.80890000  0.73670000  1.0
  Li+  Li25  1  0.78230000  0.80890000  0.23670000  1.0
  Li+  Li26  1  0.01330000  0.30890000  0.73670000  1.0
  Li+  Li27  1  0.51477179  0.30812036  0.73228102  1.0
  Li+  Li28  1  0.51330000  0.30890000  0.23670000  1.0
  Li+  Li29  1  0.51330000  0.71770000  0.05890000  1.0
  Li+  Li30  1  0.01330000  0.98670000  0.55890000  1.0
  Li+  Li31  1  0.51330000  0.48670000  0.55890000  1.0
  Li+  Li32  1  0.51330000  0.98670000  0.05890000  1.0
  Li+  Li33  1  0.51330000  0.48670000  0.05890000  1.0
  Li+  Li34  1  0.19110000  0.48670000  0.23670000  1.0
  Li+  Li35  1  0.01330000  0.48670000  0.46770000  1.0
  Li+  Li36  1  0.01330000  0.98670000  0.96770000  1.0
  Li+  Li37  1  0.00973270  0.48498954  0.96374205  1.0
  Li+  Li38  1  0.51869596  0.98640465  0.47053328  1.0
  Li+  Li39  1  0.51324130  0.48615581  0.46963945  1.0
  Li+  Li40  1  0.51330000  0.98670000  0.96770000  1.0
  Li+  Li41  1  0.51330000  0.48670000  0.96770000  1.0
  Li+  Li42  1  0.28230000  0.98670000  0.55890000  1.0
  Li+  Li43  1  0.28230000  0.48670000  0.55890000  1.0
  Li+  Li44  1  0.19110000  0.98670000  0.46770000  1.0
  Li+  Li45  1  0.69175221  0.48580903  0.46849271  1.0
  Li+  Li46  1  0.69110000  0.98670000  0.96770000  1.0
  Li+  Li47  1  0.69110000  0.48670000  0.96770000  1.0
  P5+  P48  1  0.24824656  0.74666545  0.49548692  1.0
  P5+  P49  1  0.25000000  0.25000000  0.50000000  1.0
  P5+  P50  1  0.25000000  0.75000000  0.00000000  1.0
  P5+  P51  1  0.25000000  0.25000000  0.00000000  1.0
  P5+  P52  1  0.75000000  0.75000000  0.50000000  1.0
  P5+  P53  1  0.75000000  0.25000000  0.50000000  1.0
  P5+  P54  1  0.75153765  0.74742102  0.00011156  1.0
  P5+  P55  1  0.75000000  0.25000000  0.00000000  1.0
  Se2-  Se56  1  0.30935000  0.19065000  0.67805000  1.0
  Se2-  Se57  1  0.30886138  0.19172953  0.17785857  1.0
  Se2-  Se58  1  0.80935000  0.19065000  0.17805000  1.0
  Se2-  Se59  1  0.30719968  0.19207667  0.43853137  1.0
  Se2-  Se60  1  0.80935000  0.19065000  0.44065000  1.0
  Se2-  Se61  1  0.80903732  0.68824402  0.93851013  1.0
  Se2-  Se62  1  0.30935000  0.92805000  0.94065000  1.0
  Se2-  Se63  1  0.80935000  0.42805000  0.44065000  1.0
  Se2-  Se64  1  0.80935000  0.42805000  0.94065000  1.0
  Se2-  Se65  1  0.07195000  0.69065000  0.44065000  1.0
  Se2-  Se66  1  0.57195000  0.69065000  0.94065000  1.0
  Se2-  Se67  1  0.57195000  0.19065000  0.94065000  1.0
  Se2-  Se68  1  0.37500000  0.62500000  0.87500000  1.0
  Se2-  Se69  1  0.37500000  0.12500000  0.87500000  1.0
  Se2-  Se70  1  0.87500000  0.62500000  0.37500000  1.0
  Se2-  Se71  1  0.87500000  0.12500000  0.87500000  1.0
  S2-  S72  1  0.30900788  0.68667663  0.67760709  1.0
  S2-  S73  1  0.30935000  0.69065000  0.17805000  1.0
  S2-  S74  1  0.80935000  0.69065000  0.67805000  1.0
  S2-  S75  1  0.80935000  0.19065000  0.67805000  1.0
  S2-  S76  1  0.80935000  0.69065000  0.17805000  1.0
  S2-  S77  1  0.30704188  0.69152926  0.43780489  1.0
  S2-  S78  1  0.30935000  0.69065000  0.94065000  1.0
  S2-  S79  1  0.30726211  0.19346617  0.93820121  1.0
  S2-  S80  1  0.80926099  0.69265803  0.44365263  1.0
  S2-  S81  1  0.80653427  0.18865122  0.93868521  1.0
  S2-  S82  1  0.30916900  0.92516562  0.43888112  1.0
  S2-  S83  1  0.30935000  0.42805000  0.44065000  1.0
  S2-  S84  1  0.30935000  0.42805000  0.94065000  1.0
  S2-  S85  1  0.80935000  0.92805000  0.44065000  1.0
  S2-  S86  1  0.80935000  0.92805000  0.94065000  1.0
  S2-  S87  1  0.06813373  0.18774851  0.44515378  1.0
  S2-  S88  1  0.07195000  0.69065000  0.94065000  1.0
  S2-  S89  1  0.07195000  0.19065000  0.94065000  1.0
  S2-  S90  1  0.57057227  0.69151870  0.44094651  1.0
  S2-  S91  1  0.57195000  0.19065000  0.44065000  1.0
  S2-  S92  1  0.37500000  0.62500000  0.37500000  1.0
  S2-  S93  1  0.37500000  0.12500000  0.37500000  1.0
  S2-  S94  1  0.87500000  0.12500000  0.37500000  1.0
  S2-  S95  1  0.87603118  0.62765383  0.87596182  1.0
  I-  I96  1  0.00000000  0.00000000  0.75000000  1.0
  I-  I97  1  0.00000000  0.50000000  0.75000000  1.0
  I-  I98  1  0.00000000  0.00000000  0.25000000  1.0
  I-  I99  1  0.00000000  0.50000000  0.25000000  1.0
  I-  I100  1  0.50000000  0.00000000  0.75000000  1.0
  I-  I101  1  0.50000000  0.50000000  0.75000000  1.0
  I-  I102  1  0.50000000  0.00000000  0.25000000  1.0
  I-  I103  1  0.50000000  0.50000000  0.25000000  1.0
