# generated using pymatgen
data_Li26La12Y3Nb5O48
_symmetry_space_group_name_H-M   'P 1'
_cell_length_a   22.42797950
_cell_length_b   11.21398975
_cell_length_c   11.21398975
_cell_angle_alpha   109.47122063
_cell_angle_beta   109.47122063
_cell_angle_gamma   109.47122063
_symmetry_Int_Tables_number   1
_chemical_formula_structural   Li26La12Y3Nb5O48
_chemical_formula_sum   'Li52 La24 Y6 Nb10 O96'
_cell_volume   2171.14370316
_cell_formula_units_Z   2
loop_
 _symmetry_equiv_pos_site_id
 _symmetry_equiv_pos_as_xyz
  1  'x, y, z'
loop_
 _atom_type_symbol
 _atom_type_oxidation_number
  Li+  1.0
  La3+  3.0
  Y3+  3.0
  Nb5+  5.0
  O2-  -2.0
loop_
 _atom_site_type_symbol
 _atom_site_label
 _atom_site_symmetry_multiplicity
 _atom_site_fract_x
 _atom_site_fract_y
 _atom_site_fract_z
 _atom_site_occupancy
  Li+  Li0  1  0.22120000  0.75000000  0.05760000  1.0
  Li+  Li0  1  0.72120000  0.75000000  0.05760000  1.0
  Li+  Li1  1  0.02880000  0.94240000  0.25000000  1.0
  Li+  Li1  1  0.52880000  0.94240000  0.25000000  1.0
  Li+  Li2  1  0.40380000  0.55760000  0.11520000  1.0
  Li+  Li2  1  0.90380000  0.55760000  0.11520000  1.0
  Li+  Li3  1  0.30760000  0.05760000  0.30760000  1.0
  Li+  Li3  1  0.80760000  0.05760000  0.30760000  1.0
  Li+  Li4  1  0.37500000  0.80760000  0.19240000  1.0
  Li+  Li4  1  0.87500000  0.80760000  0.19240000  1.0
  Li+  Li5  1  0.09620000  0.25000000  0.30760000  1.0
  Li+  Li5  1  0.59620000  0.25000000  0.30760000  1.0
  Li+  Li6  1  0.47120000  0.38480000  0.19240000  1.0
  Li+  Li6  1  0.97120000  0.38480000  0.19240000  1.0
  Li+  Li7  1  0.05225000  0.32780000  0.09130000  1.0
  Li+  Li7  1  0.55225000  0.32780000  0.09130000  1.0
  Li+  Li8  1  0.19775000  0.98680000  0.72330000  1.0
  Li+  Li8  1  0.69775000  0.98680000  0.72330000  1.0
  Li+  Li9  1  0.24340000  0.22330000  0.39550000  1.0
  Li+  Li9  1  0.74340000  0.22330000  0.39550000  1.0
  Li+  Li10  1  0.13835000  0.10450000  0.51320000  1.0
  Li+  Li10  1  0.63835000  0.10450000  0.51320000  1.0
  Li+  Li11  1  0.49340000  0.09130000  0.76350000  1.0
  Li+  Li11  1  0.99340000  0.09130000  0.76350000  1.0
  Li+  Li12  1  0.16390000  0.72330000  0.73650000  1.0
  Li+  Li12  1  0.66390000  0.72330000  0.73650000  1.0
  Li+  Li13  1  0.08610000  0.40870000  0.89550000  1.0
  Li+  Li13  1  0.58610000  0.40870000  0.89550000  1.0
  Li+  Li14  1  0.44775000  0.72330000  0.98680000  1.0
  Li+  Li14  1  0.94775000  0.72330000  0.98680000  1.0
  Li+  Li15  1  0.36825000  0.40870000  0.51320000  1.0
  Li+  Li15  1  0.86825000  0.40870000  0.51320000  1.0
  Li+  Li16  1  0.00660000  0.60450000  0.77670000  1.0
  Li+  Li16  1  0.50660000  0.60450000  0.77670000  1.0
  Li+  Li17  1  0.33610000  0.89550000  0.40870000  1.0
  Li+  Li17  1  0.83610000  0.89550000  0.40870000  1.0
  Li+  Li18  1  0.36165000  0.32780000  0.23650000  1.0
  Li+  Li18  1  0.86165000  0.32780000  0.23650000  1.0
  Li+  Li19  1  0.20435000  0.17220000  0.39550000  1.0
  Li+  Li19  1  0.70435000  0.17220000  0.39550000  1.0
  Li+  Li20  1  0.43750000  0.75000000  0.12500000  1.0
  Li+  Li20  1  0.93750000  0.75000000  0.12500000  1.0
  Li+  Li21  1  0.06250000  0.37500000  0.25000000  1.0
  Li+  Li21  1  0.56250000  0.37500000  0.25000000  1.0
  Li+  Li22  1  0.18750000  0.75000000  0.62500000  1.0
  Li+  Li22  1  0.68750000  0.75000000  0.62500000  1.0
  Li+  Li23  1  0.31250000  0.87500000  0.25000000  1.0
  Li+  Li23  1  0.81250000  0.87500000  0.25000000  1.0
  Li+  Li24  1  0.12500000  0.12500000  0.37500000  1.0
  Li+  Li24  1  0.62500000  0.12500000  0.37500000  1.0
  Li+  Li25  1  0.37500000  0.37500000  0.12500000  1.0
  Li+  Li25  1  0.87500000  0.37500000  0.12500000  1.0
  La3+  La1  1  0.37500000  0.62500000  0.37500000  1.0
  La3+  La1  1  0.87500000  0.62500000  0.37500000  1.0
  La3+  La1  1  0.12500000  0.87500000  0.12500000  1.0
  La3+  La1  1  0.62500000  0.87500000  0.12500000  1.0
  La3+  La1  1  0.06250000  0.75000000  0.37500000  1.0
  La3+  La1  1  0.56250000  0.75000000  0.37500000  1.0
  La3+  La1  1  0.18750000  0.25000000  0.12500000  1.0
  La3+  La1  1  0.68750000  0.25000000  0.12500000  1.0
  La3+  La1  1  0.18750000  0.62500000  0.25000000  1.0
  La3+  La1  1  0.68750000  0.62500000  0.25000000  1.0
  La3+  La1  1  0.06250000  0.87500000  0.75000000  1.0
  La3+  La1  1  0.56250000  0.87500000  0.75000000  1.0
  La3+  La1  1  0.12500000  0.37500000  0.62500000  1.0
  La3+  La1  1  0.62500000  0.37500000  0.62500000  1.0
  La3+  La1  1  0.37500000  0.12500000  0.87500000  1.0
  La3+  La1  1  0.87500000  0.12500000  0.87500000  1.0
  La3+  La1  1  0.43750000  0.25000000  0.62500000  1.0
  La3+  La1  1  0.93750000  0.25000000  0.62500000  1.0
  La3+  La1  1  0.31250000  0.75000000  0.87500000  1.0
  La3+  La1  1  0.81250000  0.75000000  0.87500000  1.0
  La3+  La1  1  0.31250000  0.37500000  0.75000000  1.0
  La3+  La1  1  0.81250000  0.37500000  0.75000000  1.0
  La3+  La1  1  0.43750000  0.12500000  0.25000000  1.0
  La3+  La1  1  0.93750000  0.12500000  0.25000000  1.0
  Y3+  Y38  1  0.25000000  0.50000000  0.50000000  1.0
  Y3+  Y38  1  0.75000000  0.50000000  0.50000000  1.0
  Y3+  Y39  1  0.00000000  0.50000000  0.50000000  1.0
  Y3+  Y39  1  0.50000000  0.50000000  0.50000000  1.0
  Y3+  Y40  1  0.25000000  0.50000000  0.00000000  1.0
  Y3+  Y40  1  0.75000000  0.50000000  0.00000000  1.0
  Nb5+  Nb41  1  0.00000000  0.00000000  0.50000000  1.0
  Nb5+  Nb41  1  0.50000000  0.00000000  0.50000000  1.0
  Nb5+  Nb42  1  0.00000000  0.50000000  0.00000000  1.0
  Nb5+  Nb42  1  0.50000000  0.50000000  0.00000000  1.0
  Nb5+  Nb43  1  0.25000000  0.00000000  0.00000000  1.0
  Nb5+  Nb43  1  0.75000000  0.00000000  1.00000000  1.0
  Nb5+  Nb44  1  0.25000000  0.00000000  0.50000000  1.0
  Nb5+  Nb44  1  0.75000000  0.00000000  0.50000000  1.0
  Nb5+  Nb45  1  0.00000000  0.00000000  0.00000000  1.0
  Nb5+  Nb45  1  0.50000000  0.00000000  0.00000000  1.0
  O2-  O1  1  0.45065000  0.51400000  0.30890000  1.0
  O2-  O1  1  0.95065000  0.51400000  0.30890000  1.0
  O2-  O1  1  0.29935000  0.40760000  0.11270000  1.0
  O2-  O1  1  0.79935000  0.40760000  0.11270000  1.0
  O2-  O1  1  0.14745000  0.98600000  0.38730000  1.0
  O2-  O1  1  0.64745000  0.98600000  0.38730000  1.0
  O2-  O1  1  0.10255000  0.09240000  0.19110000  1.0
  O2-  O1  1  0.60255000  0.09240000  0.19110000  1.0
  O2-  O1  1  0.19365000  0.79490000  0.48600000  1.0
  O2-  O1  1  0.69365000  0.79490000  0.48600000  1.0
  O2-  O1  1  0.09555000  0.70510000  0.59240000  1.0
  O2-  O1  1  0.59555000  0.70510000  0.59240000  1.0
  O2-  O1  1  0.15445000  0.40130000  0.01400000  1.0
  O2-  O1  1  0.65445000  0.40130000  0.01400000  1.0
  O2-  O1  1  0.05635000  0.09870000  0.90760000  1.0
  O2-  O1  1  0.55635000  0.09870000  0.90760000  1.0
  O2-  O1  1  0.29620000  0.69110000  0.20510000  1.0
  O2-  O1  1  0.79620000  0.69110000  0.20510000  1.0
  O2-  O1  1  0.24300000  0.88730000  0.29490000  1.0
  O2-  O1  1  0.74300000  0.88730000  0.29490000  1.0
  O2-  O1  1  0.45380000  0.61270000  0.59870000  1.0
  O2-  O1  1  0.95380000  0.61270000  0.59870000  1.0
  O2-  O1  1  0.00700000  0.80890000  0.90130000  1.0
  O2-  O1  1  0.50700000  0.80890000  0.90130000  1.0
  O2-  O1  1  0.04935000  0.48600000  0.69110000  1.0
  O2-  O1  1  0.54935000  0.48600000  0.69110000  1.0
  O2-  O1  1  0.20065000  0.59240000  0.88730000  1.0
  O2-  O1  1  0.70065000  0.59240000  0.88730000  1.0
  O2-  O1  1  0.35255000  0.01400000  0.61270000  1.0
  O2-  O1  1  0.85255000  0.01400000  0.61270000  1.0
  O2-  O1  1  0.39745000  0.90760000  0.80890000  1.0
  O2-  O1  1  0.89745000  0.90760000  0.80890000  1.0
  O2-  O1  1  0.30635000  0.20510000  0.51400000  1.0
  O2-  O1  1  0.80635000  0.20510000  0.51400000  1.0
  O2-  O1  1  0.40445000  0.29490000  0.40760000  1.0
  O2-  O1  1  0.90445000  0.29490000  0.40760000  1.0
  O2-  O1  1  0.34555000  0.59870000  0.98600000  1.0
  O2-  O1  1  0.84555000  0.59870000  0.98600000  1.0
  O2-  O1  1  0.44365000  0.90130000  0.09240000  1.0
  O2-  O1  1  0.94365000  0.90130000  0.09240000  1.0
  O2-  O1  1  0.20380000  0.30890000  0.79490000  1.0
  O2-  O1  1  0.70380000  0.30890000  0.79490000  1.0
  O2-  O1  1  0.25700000  0.11270000  0.70510000  1.0
  O2-  O1  1  0.75700000  0.11270000  0.70510000  1.0
  O2-  O1  1  0.04620000  0.38730000  0.40130000  1.0
  O2-  O1  1  0.54620000  0.38730000  0.40130000  1.0
  O2-  O1  1  0.49300000  0.19110000  0.09870000  1.0
  O2-  O1  1  0.99300000  0.19110000  0.09870000  1.0
  O2-  O1  1  0.04620000  0.20510000  0.69110000  1.0
  O2-  O1  1  0.54620000  0.20510000  0.69110000  1.0
  O2-  O1  1  0.49300000  0.29490000  0.88730000  1.0
  O2-  O1  1  0.99300000  0.29490000  0.88730000  1.0
  O2-  O1  1  0.20380000  0.59870000  0.61270000  1.0
  O2-  O1  1  0.70380000  0.59870000  0.61270000  1.0
  O2-  O1  1  0.25700000  0.90130000  0.80890000  1.0
  O2-  O1  1  0.75700000  0.90130000  0.80890000  1.0
  O2-  O1  1  0.20065000  0.30890000  0.51400000  1.0
  O2-  O1  1  0.70065000  0.30890000  0.51400000  1.0
  O2-  O1  1  0.04935000  0.11270000  0.40760000  1.0
  O2-  O1  1  0.54935000  0.11270000  0.40760000  1.0
  O2-  O1  1  0.39745000  0.38730000  0.98600000  1.0
  O2-  O1  1  0.89745000  0.38730000  0.98600000  1.0
  O2-  O1  1  0.35255000  0.19110000  0.09240000  1.0
  O2-  O1  1  0.85255000  0.19110000  0.09240000  1.0
  O2-  O1  1  0.44365000  0.48600000  0.79490000  1.0
  O2-  O1  1  0.94365000  0.48600000  0.79490000  1.0
  O2-  O1  1  0.34555000  0.59240000  0.70510000  1.0
  O2-  O1  1  0.84555000  0.59240000  0.70510000  1.0
  O2-  O1  1  0.40445000  0.01400000  0.40130000  1.0
  O2-  O1  1  0.90445000  0.01400000  0.40130000  1.0
  O2-  O1  1  0.30635000  0.90760000  0.09870000  1.0
  O2-  O1  1  0.80635000  0.90760000  0.09870000  1.0
  O2-  O1  1  0.45380000  0.79490000  0.30890000  1.0
  O2-  O1  1  0.95380000  0.79490000  0.30890000  1.0
  O2-  O1  1  0.00700000  0.70510000  0.11270000  1.0
  O2-  O1  1  0.50700000  0.70510000  0.11270000  1.0
  O2-  O1  1  0.29620000  0.40130000  0.38730000  1.0
  O2-  O1  1  0.79620000  0.40130000  0.38730000  1.0
  O2-  O1  1  0.24300000  0.09870000  0.19110000  1.0
  O2-  O1  1  0.74300000  0.09870000  0.19110000  1.0
  O2-  O1  1  0.29935000  0.69110000  0.48600000  1.0
  O2-  O1  1  0.79935000  0.69110000  0.48600000  1.0
  O2-  O1  1  0.45065000  0.88730000  0.59240000  1.0
  O2-  O1  1  0.95065000  0.88730000  0.59240000  1.0
  O2-  O1  1  0.10255000  0.61270000  0.01400000  1.0
  O2-  O1  1  0.60255000  0.61270000  0.01400000  1.0
  O2-  O1  1  0.14745000  0.80890000  0.90760000  1.0
  O2-  O1  1  0.64745000  0.80890000  0.90760000  1.0
  O2-  O1  1  0.05635000  0.51400000  0.20510000  1.0
  O2-  O1  1  0.55635000  0.51400000  0.20510000  1.0
  O2-  O1  1  0.15445000  0.40760000  0.29490000  1.0
  O2-  O1  1  0.65445000  0.40760000  0.29490000  1.0
  O2-  O1  1  0.09555000  0.98600000  0.59870000  1.0
  O2-  O1  1  0.59555000  0.98600000  0.59870000  1.0
  O2-  O1  1  0.19365000  0.09240000  0.90130000  1.0
  O2-  O1  1  0.69365000  0.09240000  0.90130000  1.0
