# generated using pymatgen
data_LiAlCl4
_symmetry_space_group_name_H-M   'P 1'
_cell_length_a   13.00600000
_cell_length_b   14.00800000
_cell_length_c   25.99200000
_cell_angle_alpha   93.30000000
_cell_angle_beta   90.00000000
_cell_angle_gamma   90.00000000
_symmetry_Int_Tables_number   1
_chemical_formula_structural   LiAlCl4
_chemical_formula_sum   'Li32 Al32 Cl128'
_cell_volume   4727.57952937
_cell_formula_units_Z   32
loop_
 _symmetry_equiv_pos_site_id
 _symmetry_equiv_pos_as_xyz
  1  'x, y, z'
loop_
 _atom_type_symbol
 _atom_type_oxidation_number
  Li+  1.0
  Al3+  3.0
  Cl-  -1.0
loop_
 _atom_site_type_symbol
 _atom_site_label
 _atom_site_symmetry_multiplicity
 _atom_site_fract_x
 _atom_site_fract_y
 _atom_site_fract_z
 _atom_site_occupancy
  Li+  Li1  1  0.24250000  0.42115000  0.06770000  1.0
  Li+  Li1  1  0.24250000  0.42115000  0.56770000  1.0
  Li+  Li1  1  0.24250000  0.92115000  0.06770000  1.0
  Li+  Li1  1  0.24250000  0.92115000  0.56770000  1.0
  Li+  Li1  1  0.74250000  0.42115000  0.06770000  1.0
  Li+  Li1  1  0.74250000  0.42115000  0.56770000  1.0
  Li+  Li1  1  0.74250000  0.92115000  0.06770000  1.0
  Li+  Li1  1  0.74250000  0.92115000  0.56770000  1.0
  Li+  Li1  1  0.49250000  0.07885000  0.18230000  1.0
  Li+  Li1  1  0.49250000  0.07885000  0.68230000  1.0
  Li+  Li1  1  0.49250000  0.57885000  0.18230000  1.0
  Li+  Li1  1  0.49250000  0.57885000  0.68230000  1.0
  Li+  Li1  1  0.99250000  0.07885000  0.18230000  1.0
  Li+  Li1  1  0.99250000  0.07885000  0.68230000  1.0
  Li+  Li1  1  0.99250000  0.57885000  0.18230000  1.0
  Li+  Li1  1  0.99250000  0.57885000  0.68230000  1.0
  Li+  Li1  1  0.25750000  0.07885000  0.43230000  1.0
  Li+  Li1  1  0.25750000  0.07885000  0.93230000  1.0
  Li+  Li1  1  0.25750000  0.57885000  0.43230000  1.0
  Li+  Li1  1  0.25750000  0.57885000  0.93230000  1.0
  Li+  Li1  1  0.75750000  0.07885000  0.43230000  1.0
  Li+  Li1  1  0.75750000  0.07885000  0.93230000  1.0
  Li+  Li1  1  0.75750000  0.57885000  0.43230000  1.0
  Li+  Li1  1  0.75750000  0.57885000  0.93230000  1.0
  Li+  Li1  1  0.00750000  0.42115000  0.31770000  1.0
  Li+  Li1  1  0.00750000  0.42115000  0.81770000  1.0
  Li+  Li1  1  0.00750000  0.92115000  0.31770000  1.0
  Li+  Li1  1  0.00750000  0.92115000  0.81770000  1.0
  Li+  Li1  1  0.50750000  0.42115000  0.31770000  1.0
  Li+  Li1  1  0.50750000  0.42115000  0.81770000  1.0
  Li+  Li1  1  0.50750000  0.92115000  0.31770000  1.0
  Li+  Li1  1  0.50750000  0.92115000  0.81770000  1.0
  Al3+  Al1  1  0.41085000  0.14705000  0.30048500  1.0
  Al3+  Al1  1  0.41085000  0.14705000  0.80048500  1.0
  Al3+  Al1  1  0.41085000  0.64705000  0.30048500  1.0
  Al3+  Al1  1  0.41085000  0.64705000  0.80048500  1.0
  Al3+  Al1  1  0.91085000  0.14705000  0.30048500  1.0
  Al3+  Al1  1  0.91085000  0.14705000  0.80048500  1.0
  Al3+  Al1  1  0.91085000  0.64705000  0.30048500  1.0
  Al3+  Al1  1  0.91085000  0.64705000  0.80048500  1.0
  Al3+  Al1  1  0.16085000  0.35295000  0.44951500  1.0
  Al3+  Al1  1  0.16085000  0.35295000  0.94951500  1.0
  Al3+  Al1  1  0.16085000  0.85295000  0.44951500  1.0
  Al3+  Al1  1  0.16085000  0.85295000  0.94951500  1.0
  Al3+  Al1  1  0.66085000  0.35295000  0.44951500  1.0
  Al3+  Al1  1  0.66085000  0.35295000  0.94951500  1.0
  Al3+  Al1  1  0.66085000  0.85295000  0.44951500  1.0
  Al3+  Al1  1  0.66085000  0.85295000  0.94951500  1.0
  Al3+  Al1  1  0.08915000  0.35295000  0.19951500  1.0
  Al3+  Al1  1  0.08915000  0.35295000  0.69951500  1.0
  Al3+  Al1  1  0.08915000  0.85295000  0.19951500  1.0
  Al3+  Al1  1  0.08915000  0.85295000  0.69951500  1.0
  Al3+  Al1  1  0.58915000  0.35295000  0.19951500  1.0
  Al3+  Al1  1  0.58915000  0.35295000  0.69951500  1.0
  Al3+  Al1  1  0.58915000  0.85295000  0.19951500  1.0
  Al3+  Al1  1  0.58915000  0.85295000  0.69951500  1.0
  Al3+  Al1  1  0.33915000  0.14705000  0.05048500  1.0
  Al3+  Al1  1  0.33915000  0.14705000  0.55048500  1.0
  Al3+  Al1  1  0.33915000  0.64705000  0.05048500  1.0
  Al3+  Al1  1  0.33915000  0.64705000  0.55048500  1.0
  Al3+  Al1  1  0.83915000  0.14705000  0.05048500  1.0
  Al3+  Al1  1  0.83915000  0.14705000  0.55048500  1.0
  Al3+  Al1  1  0.83915000  0.64705000  0.05048500  1.0
  Al3+  Al1  1  0.83915000  0.64705000  0.55048500  1.0
  Cl-  Cl1  1  0.34160000  0.15310000  0.22666500  1.0
  Cl-  Cl1  1  0.34160000  0.15310000  0.72666500  1.0
  Cl-  Cl1  1  0.34160000  0.65310000  0.22666500  1.0
  Cl-  Cl1  1  0.34160000  0.65310000  0.72666500  1.0
  Cl-  Cl1  1  0.84160000  0.15310000  0.22666500  1.0
  Cl-  Cl1  1  0.84160000  0.15310000  0.72666500  1.0
  Cl-  Cl1  1  0.84160000  0.65310000  0.22666500  1.0
  Cl-  Cl1  1  0.84160000  0.65310000  0.72666500  1.0
  Cl-  Cl1  1  0.09160000  0.34690000  0.02333500  1.0
  Cl-  Cl1  1  0.09160000  0.34690000  0.52333500  1.0
  Cl-  Cl1  1  0.09160000  0.84690000  0.02333500  1.0
  Cl-  Cl1  1  0.09160000  0.84690000  0.52333500  1.0
  Cl-  Cl1  1  0.59160000  0.34690000  0.02333500  1.0
  Cl-  Cl1  1  0.59160000  0.34690000  0.52333500  1.0
  Cl-  Cl1  1  0.59160000  0.84690000  0.02333500  1.0
  Cl-  Cl1  1  0.59160000  0.84690000  0.52333500  1.0
  Cl-  Cl1  1  0.15840000  0.34690000  0.27333500  1.0
  Cl-  Cl1  1  0.15840000  0.34690000  0.77333500  1.0
  Cl-  Cl1  1  0.15840000  0.84690000  0.27333500  1.0
  Cl-  Cl1  1  0.15840000  0.84690000  0.77333500  1.0
  Cl-  Cl1  1  0.65840000  0.34690000  0.27333500  1.0
  Cl-  Cl1  1  0.65840000  0.34690000  0.77333500  1.0
  Cl-  Cl1  1  0.65840000  0.84690000  0.27333500  1.0
  Cl-  Cl1  1  0.65840000  0.84690000  0.77333500  1.0
  Cl-  Cl1  1  0.40840000  0.15310000  0.47666500  1.0
  Cl-  Cl1  1  0.40840000  0.15310000  0.97666500  1.0
  Cl-  Cl1  1  0.40840000  0.65310000  0.47666500  1.0
  Cl-  Cl1  1  0.40840000  0.65310000  0.97666500  1.0
  Cl-  Cl1  1  0.90840000  0.15310000  0.47666500  1.0
  Cl-  Cl1  1  0.90840000  0.15310000  0.97666500  1.0
  Cl-  Cl1  1  0.90840000  0.65310000  0.47666500  1.0
  Cl-  Cl1  1  0.90840000  0.65310000  0.97666500  1.0
  Cl-  Cl2  1  0.06405000  0.09570000  0.28570500  1.0
  Cl-  Cl2  1  0.06405000  0.09570000  0.78570500  1.0
  Cl-  Cl2  1  0.06405000  0.59570000  0.28570500  1.0
  Cl-  Cl2  1  0.06405000  0.59570000  0.78570500  1.0
  Cl-  Cl2  1  0.56405000  0.09570000  0.28570500  1.0
  Cl-  Cl2  1  0.56405000  0.09570000  0.78570500  1.0
  Cl-  Cl2  1  0.56405000  0.59570000  0.28570500  1.0
  Cl-  Cl2  1  0.56405000  0.59570000  0.78570500  1.0
  Cl-  Cl2  1  0.31405000  0.40430000  0.46429500  1.0
  Cl-  Cl2  1  0.31405000  0.40430000  0.96429500  1.0
  Cl-  Cl2  1  0.31405000  0.90430000  0.46429500  1.0
  Cl-  Cl2  1  0.31405000  0.90430000  0.96429500  1.0
  Cl-  Cl2  1  0.81405000  0.40430000  0.46429500  1.0
  Cl-  Cl2  1  0.81405000  0.40430000  0.96429500  1.0
  Cl-  Cl2  1  0.81405000  0.90430000  0.46429500  1.0
  Cl-  Cl2  1  0.81405000  0.90430000  0.96429500  1.0
  Cl-  Cl2  1  0.43595000  0.40430000  0.21429500  1.0
  Cl-  Cl2  1  0.43595000  0.40430000  0.71429500  1.0
  Cl-  Cl2  1  0.43595000  0.90430000  0.21429500  1.0
  Cl-  Cl2  1  0.43595000  0.90430000  0.71429500  1.0
  Cl-  Cl2  1  0.93595000  0.40430000  0.21429500  1.0
  Cl-  Cl2  1  0.93595000  0.40430000  0.71429500  1.0
  Cl-  Cl2  1  0.93595000  0.90430000  0.21429500  1.0
  Cl-  Cl2  1  0.93595000  0.90430000  0.71429500  1.0
  Cl-  Cl2  1  0.18595000  0.09570000  0.03570500  1.0
  Cl-  Cl2  1  0.18595000  0.09570000  0.53570500  1.0
  Cl-  Cl2  1  0.18595000  0.59570000  0.03570500  1.0
  Cl-  Cl2  1  0.18595000  0.59570000  0.53570500  1.0
  Cl-  Cl2  1  0.68595000  0.09570000  0.03570500  1.0
  Cl-  Cl2  1  0.68595000  0.09570000  0.53570500  1.0
  Cl-  Cl2  1  0.68595000  0.59570000  0.03570500  1.0
  Cl-  Cl2  1  0.68595000  0.59570000  0.53570500  1.0
  Cl-  Cl3  1  0.34060000  0.03725000  0.34307000  1.0
  Cl-  Cl3  1  0.34060000  0.03725000  0.84307000  1.0
  Cl-  Cl3  1  0.34060000  0.53725000  0.34307000  1.0
  Cl-  Cl3  1  0.34060000  0.53725000  0.84307000  1.0
  Cl-  Cl3  1  0.84060000  0.03725000  0.34307000  1.0
  Cl-  Cl3  1  0.84060000  0.03725000  0.84307000  1.0
  Cl-  Cl3  1  0.84060000  0.53725000  0.34307000  1.0
  Cl-  Cl3  1  0.84060000  0.53725000  0.84307000  1.0
  Cl-  Cl3  1  0.09060000  0.46275000  0.40693000  1.0
  Cl-  Cl3  1  0.09060000  0.46275000  0.90693000  1.0
  Cl-  Cl3  1  0.09060000  0.96275000  0.40693000  1.0
  Cl-  Cl3  1  0.09060000  0.96275000  0.90693000  1.0
  Cl-  Cl3  1  0.59060000  0.46275000  0.40693000  1.0
  Cl-  Cl3  1  0.59060000  0.46275000  0.90693000  1.0
  Cl-  Cl3  1  0.59060000  0.96275000  0.40693000  1.0
  Cl-  Cl3  1  0.59060000  0.96275000  0.90693000  1.0
  Cl-  Cl3  1  0.15940000  0.46275000  0.15693000  1.0
  Cl-  Cl3  1  0.15940000  0.46275000  0.65693000  1.0
  Cl-  Cl3  1  0.15940000  0.96275000  0.15693000  1.0
  Cl-  Cl3  1  0.15940000  0.96275000  0.65693000  1.0
  Cl-  Cl3  1  0.65940000  0.46275000  0.15693000  1.0
  Cl-  Cl3  1  0.65940000  0.46275000  0.65693000  1.0
  Cl-  Cl3  1  0.65940000  0.96275000  0.15693000  1.0
  Cl-  Cl3  1  0.65940000  0.96275000  0.65693000  1.0
  Cl-  Cl3  1  0.40940000  0.03725000  0.09307000  1.0
  Cl-  Cl3  1  0.40940000  0.03725000  0.59307000  1.0
  Cl-  Cl3  1  0.40940000  0.53725000  0.09307000  1.0
  Cl-  Cl3  1  0.40940000  0.53725000  0.59307000  1.0
  Cl-  Cl3  1  0.90940000  0.03725000  0.09307000  1.0
  Cl-  Cl3  1  0.90940000  0.03725000  0.59307000  1.0
  Cl-  Cl3  1  0.90940000  0.53725000  0.09307000  1.0
  Cl-  Cl3  1  0.90940000  0.53725000  0.59307000  1.0
  Cl-  Cl4  1  0.40700000  0.28015000  0.34352500  1.0
  Cl-  Cl4  1  0.40700000  0.28015000  0.84352500  1.0
  Cl-  Cl4  1  0.40700000  0.78015000  0.34352500  1.0
  Cl-  Cl4  1  0.40700000  0.78015000  0.84352500  1.0
  Cl-  Cl4  1  0.90700000  0.28015000  0.34352500  1.0
  Cl-  Cl4  1  0.90700000  0.28015000  0.84352500  1.0
  Cl-  Cl4  1  0.90700000  0.78015000  0.34352500  1.0
  Cl-  Cl4  1  0.90700000  0.78015000  0.84352500  1.0
  Cl-  Cl4  1  0.15700000  0.21985000  0.40647500  1.0
  Cl-  Cl4  1  0.15700000  0.21985000  0.90647500  1.0
  Cl-  Cl4  1  0.15700000  0.71985000  0.40647500  1.0
  Cl-  Cl4  1  0.15700000  0.71985000  0.90647500  1.0
  Cl-  Cl4  1  0.65700000  0.21985000  0.40647500  1.0
  Cl-  Cl4  1  0.65700000  0.21985000  0.90647500  1.0
  Cl-  Cl4  1  0.65700000  0.71985000  0.40647500  1.0
  Cl-  Cl4  1  0.65700000  0.71985000  0.90647500  1.0
  Cl-  Cl4  1  0.09300000  0.21985000  0.15647500  1.0
  Cl-  Cl4  1  0.09300000  0.21985000  0.65647500  1.0
  Cl-  Cl4  1  0.09300000  0.71985000  0.15647500  1.0
  Cl-  Cl4  1  0.09300000  0.71985000  0.65647500  1.0
  Cl-  Cl4  1  0.59300000  0.21985000  0.15647500  1.0
  Cl-  Cl4  1  0.59300000  0.21985000  0.65647500  1.0
  Cl-  Cl4  1  0.59300000  0.71985000  0.15647500  1.0
  Cl-  Cl4  1  0.59300000  0.71985000  0.65647500  1.0
  Cl-  Cl4  1  0.34300000  0.28015000  0.09352500  1.0
  Cl-  Cl4  1  0.34300000  0.28015000  0.59352500  1.0
  Cl-  Cl4  1  0.34300000  0.78015000  0.09352500  1.0
  Cl-  Cl4  1  0.34300000  0.78015000  0.59352500  1.0
  Cl-  Cl4  1  0.84300000  0.28015000  0.09352500  1.0
  Cl-  Cl4  1  0.84300000  0.28015000  0.59352500  1.0
  Cl-  Cl4  1  0.84300000  0.78015000  0.09352500  1.0
  Cl-  Cl4  1  0.84300000  0.78015000  0.59352500  1.0
