# generated using pymatgen
data_Li4GeSe4
_symmetry_space_group_name_H-M   'P 1'
_cell_length_a   12.98598000
_cell_length_b   14.59532000
_cell_length_c   16.44746000
_cell_angle_alpha   90.00000000
_cell_angle_beta   90.00000000
_cell_angle_gamma   90.00000000
_symmetry_Int_Tables_number   1
_chemical_formula_structural   Li4GeSe4
_chemical_formula_sum   'Li64 Ge16 Se64'
_cell_volume   3117.36166023
_cell_formula_units_Z   16
loop_
 _symmetry_equiv_pos_site_id
 _symmetry_equiv_pos_as_xyz
  1  'x, y, z'
loop_
 _atom_type_symbol
 _atom_type_oxidation_number
  Li+  1.0
  Ge4+  4.0
  Se2-  -2.0
loop_
 _atom_site_type_symbol
 _atom_site_label
 _atom_site_symmetry_multiplicity
 _atom_site_fract_x
 _atom_site_fract_y
 _atom_site_fract_z
 _atom_site_occupancy
  Li+  Li0  1  0.32095000  0.41970000  0.62500000  1.0
  Li+  Li1  1  0.32095000  0.41970000  0.12500000  1.0
  Li+  Li2  1  0.82095000  0.41970000  0.62500000  1.0
  Li+  Li3  1  0.82405649  0.42206908  0.12222127  1.0
  Li+  Li4  1  0.17905000  0.58030000  0.37500000  1.0
  Li+  Li5  1  0.17905000  0.58030000  0.87500000  1.0
  Li+  Li6  1  0.67876346  0.57763362  0.37384404  1.0
  Li+  Li7  1  0.67905000  0.58030000  0.87500000  1.0
  Li+  Li8  1  0.07095000  0.08030000  0.37500000  1.0
  Li+  Li9  1  0.07095000  0.08030000  0.87500000  1.0
  Li+  Li10  1  0.57095000  0.08030000  0.37500000  1.0
  Li+  Li11  1  0.57095000  0.08030000  0.87500000  1.0
  Li+  Li12  1  0.42905000  0.91970000  0.62500000  1.0
  Li+  Li13  1  0.42905000  0.91970000  0.12500000  1.0
  Li+  Li14  1  0.92905000  0.91970000  0.62500000  1.0
  Li+  Li15  1  0.92708650  0.92621793  0.11910083  1.0
  Li+  Li16  1  0.34700000  0.17050000  0.74425000  1.0
  Li+  Li17  1  0.34700000  0.17050000  0.24425000  1.0
  Li+  Li18  1  0.09745153  0.32685172  0.25683565  1.0
  Li+  Li19  1  0.09213223  0.32433556  0.75308070  1.0
  Li+  Li20  1  0.59700000  0.32950000  0.25575000  1.0
  Li+  Li21  1  0.59700000  0.32950000  0.75575000  1.0
  Li+  Li22  1  0.09700000  0.32950000  0.49425000  1.0
  Li+  Li23  1  0.09700000  0.32950000  0.99425000  1.0
  Li+  Li24  1  0.84700000  0.17050000  0.50575000  1.0
  Li+  Li25  1  0.84700000  0.17050000  0.00575000  1.0
  Li+  Li26  1  0.65336408  0.82484865  0.25317464  1.0
  Li+  Li27  1  0.65300000  0.82950000  0.75575000  1.0
  Li+  Li28  1  0.40300000  0.67050000  0.74425000  1.0
  Li+  Li29  1  0.40493791  0.67141567  0.24810088  1.0
  Li+  Li30  1  0.23980000  0.98470000  0.49250000  1.0
  Li+  Li31  1  0.23980000  0.98470000  0.99250000  1.0
  Li+  Li32  1  0.01020000  0.48470000  0.25750000  1.0
  Li+  Li33  1  0.01020000  0.48470000  0.75750000  1.0
  Li+  Li34  1  0.51020000  0.48470000  0.25750000  1.0
  Li+  Li35  1  0.50823362  0.48372590  0.75965726  1.0
  Li+  Li36  1  0.01228970  0.48958003  0.49375696  1.0
  Li+  Li37  1  0.01020000  0.48470000  0.99250000  1.0
  Li+  Li38  1  0.76020000  0.01530000  0.50750000  1.0
  Li+  Li39  1  0.76020000  0.01530000  0.00750000  1.0
  Li+  Li40  1  0.23980000  0.98470000  0.25750000  1.0
  Li+  Li41  1  0.23980000  0.98470000  0.75750000  1.0
  Li+  Li42  1  0.73980000  0.98470000  0.25750000  1.0
  Li+  Li43  1  0.73980000  0.98470000  0.75750000  1.0
  Li+  Li44  1  0.92659480  0.17261950  0.24985142  1.0
  Li+  Li45  1  0.92525000  0.17470000  0.75830000  1.0
  Li+  Li46  1  0.07669895  0.82556982  0.50946694  1.0
  Li+  Li47  1  0.07475000  0.82530000  0.00830000  1.0
  Li+  Li48  1  0.57641093  0.82583312  0.51200683  1.0
  Li+  Li49  1  0.57475000  0.82530000  0.00830000  1.0
  Li+  Li50  1  0.17525000  0.32530000  0.74170000  1.0
  Li+  Li51  1  0.17525000  0.32530000  0.24170000  1.0
  Li+  Li52  1  0.67525000  0.32530000  0.74170000  1.0
  Li+  Li53  1  0.67525000  0.32530000  0.24170000  1.0
  Li+  Li54  1  0.17761469  0.32726973  0.50970067  1.0
  Li+  Li55  1  0.17525000  0.32530000  0.00830000  1.0
  Li+  Li56  1  0.67525000  0.32530000  0.50830000  1.0
  Li+  Li57  1  0.67525000  0.32530000  0.00830000  1.0
  Li+  Li58  1  0.42525000  0.17470000  0.49170000  1.0
  Li+  Li59  1  0.42525000  0.17470000  0.99170000  1.0
  Li+  Li60  1  0.32461234  0.67479923  0.48670844  1.0
  Li+  Li61  1  0.32170869  0.67537820  0.98997103  1.0
  Li+  Li62  1  0.82361656  0.67722598  0.25982696  1.0
  Li+  Li63  1  0.82475000  0.67470000  0.75830000  1.0
  Ge4+  Ge64  1  0.32065000  0.41248000  0.37500000  1.0
  Ge4+  Ge65  1  0.32065000  0.41248000  0.87500000  1.0
  Ge4+  Ge66  1  0.82131611  0.41360533  0.37980978  1.0
  Ge4+  Ge67  1  0.82065000  0.41248000  0.87500000  1.0
  Ge4+  Ge68  1  0.17935000  0.58752000  0.62500000  1.0
  Ge4+  Ge69  1  0.17935000  0.58752000  0.12500000  1.0
  Ge4+  Ge70  1  0.67515257  0.58550239  0.63051674  1.0
  Ge4+  Ge71  1  0.67935000  0.58752000  0.12500000  1.0
  Ge4+  Ge72  1  0.07065000  0.08752000  0.62500000  1.0
  Ge4+  Ge73  1  0.07065000  0.08752000  0.12500000  1.0
  Ge4+  Ge74  1  0.57065000  0.08752000  0.62500000  1.0
  Ge4+  Ge75  1  0.57065000  0.08752000  0.12500000  1.0
  Ge4+  Ge76  1  0.42935000  0.91248000  0.37500000  1.0
  Ge4+  Ge77  1  0.42632982  0.91494159  0.87462532  1.0
  Ge4+  Ge78  1  0.92935000  0.91248000  0.37500000  1.0
  Ge4+  Ge79  1  0.92935000  0.91248000  0.87500000  1.0
  Se2-  Se80  1  0.38385241  0.34691995  0.25270343  1.0
  Se2-  Se81  1  0.38500000  0.34339000  0.75636000  1.0
  Se2-  Se82  1  0.88049934  0.34249451  0.25467117  1.0
  Se2-  Se83  1  0.88500000  0.34339000  0.75636000  1.0
  Se2-  Se84  1  0.11500000  0.65661000  0.50636000  1.0
  Se2-  Se85  1  0.11500000  0.65661000  0.00636000  1.0
  Se2-  Se86  1  0.61032468  0.65642983  0.50732155  1.0
  Se2-  Se87  1  0.61500000  0.65661000  0.00636000  1.0
  Se2-  Se88  1  0.13500000  0.15661000  0.74364000  1.0
  Se2-  Se89  1  0.13480031  0.16175284  0.24410323  1.0
  Se2-  Se90  1  0.63500000  0.15661000  0.74364000  1.0
  Se2-  Se91  1  0.63500000  0.15661000  0.24364000  1.0
  Se2-  Se92  1  0.13516042  0.15575307  0.50424474  1.0
  Se2-  Se93  1  0.13500000  0.15661000  0.00636000  1.0
  Se2-  Se94  1  0.63500000  0.15661000  0.50636000  1.0
  Se2-  Se95  1  0.63500000  0.15661000  0.00636000  1.0
  Se2-  Se96  1  0.38500000  0.34339000  0.49364000  1.0
  Se2-  Se97  1  0.38500000  0.34339000  0.99364000  1.0
  Se2-  Se98  1  0.88500000  0.34339000  0.49364000  1.0
  Se2-  Se99  1  0.88500000  0.34339000  0.99364000  1.0
  Se2-  Se100  1  0.11482536  0.65955981  0.73755771  1.0
  Se2-  Se101  1  0.11500000  0.65661000  0.24364000  1.0
  Se2-  Se102  1  0.61500000  0.65661000  0.74364000  1.0
  Se2-  Se103  1  0.61500000  0.65661000  0.24364000  1.0
  Se2-  Se104  1  0.36500000  0.84339000  0.49364000  1.0
  Se2-  Se105  1  0.36705558  0.83688300  0.99185616  1.0
  Se2-  Se106  1  0.86500000  0.84339000  0.49364000  1.0
  Se2-  Se107  1  0.86500000  0.84339000  0.99364000  1.0
  Se2-  Se108  1  0.36196335  0.84268471  0.25697138  1.0
  Se2-  Se109  1  0.36500000  0.84339000  0.75636000  1.0
  Se2-  Se110  1  0.86500000  0.84339000  0.25636000  1.0
  Se2-  Se111  1  0.86384986  0.84061252  0.75984466  1.0
  Se2-  Se112  1  0.39080000  0.09013000  0.62500000  1.0
  Se2-  Se113  1  0.39080000  0.09013000  0.12500000  1.0
  Se2-  Se114  1  0.89080000  0.09013000  0.62500000  1.0
  Se2-  Se115  1  0.89335991  0.09193194  0.12686588  1.0
  Se2-  Se116  1  0.10920000  0.90987000  0.37500000  1.0
  Se2-  Se117  1  0.10920000  0.90987000  0.87500000  1.0
  Se2-  Se118  1  0.60920000  0.90987000  0.37500000  1.0
  Se2-  Se119  1  0.61049015  0.90673716  0.87733032  1.0
  Se2-  Se120  1  0.14080000  0.40987000  0.37500000  1.0
  Se2-  Se121  1  0.13981764  0.40970229  0.87432105  1.0
  Se2-  Se122  1  0.64080000  0.40987000  0.37500000  1.0
  Se2-  Se123  1  0.64080000  0.40987000  0.87500000  1.0
  Se2-  Se124  1  0.35920000  0.59013000  0.62500000  1.0
  Se2-  Se125  1  0.35920066  0.58913024  0.12858876  1.0
  Se2-  Se126  1  0.85920000  0.59013000  0.62500000  1.0
  Se2-  Se127  1  0.85920000  0.59013000  0.12500000  1.0
  Se2-  Se128  1  0.36299670  0.06599455  0.37844364  1.0
  Se2-  Se129  1  0.36640000  0.06484000  0.87500000  1.0
  Se2-  Se130  1  0.86640000  0.06484000  0.37500000  1.0
  Se2-  Se131  1  0.86640000  0.06484000  0.87500000  1.0
  Se2-  Se132  1  0.13561097  0.93175394  0.62570258  1.0
  Se2-  Se133  1  0.13360000  0.93516000  0.12500000  1.0
  Se2-  Se134  1  0.63360000  0.93516000  0.62500000  1.0
  Se2-  Se135  1  0.63360000  0.93516000  0.12500000  1.0
  Se2-  Se136  1  0.11314926  0.44237316  0.62399654  1.0
  Se2-  Se137  1  0.11395226  0.43650163  0.12800871  1.0
  Se2-  Se138  1  0.61640000  0.43516000  0.62500000  1.0
  Se2-  Se139  1  0.61640000  0.43516000  0.12500000  1.0
  Se2-  Se140  1  0.38360000  0.56484000  0.37500000  1.0
  Se2-  Se141  1  0.38360000  0.56484000  0.87500000  1.0
  Se2-  Se142  1  0.88360000  0.56484000  0.37500000  1.0
  Se2-  Se143  1  0.88360000  0.56484000  0.87500000  1.0
