# generated using pymatgen
data_Li4GeSe4
_symmetry_space_group_name_H-M   'P 1'
_cell_length_a   16.34900353
_cell_length_b   12.90824437
_cell_length_c   14.50795067
_cell_angle_alpha   90.00000000
_cell_angle_beta   90.00000000
_cell_angle_gamma   90.00000000
_symmetry_Int_Tables_number   1
_chemical_formula_structural   Li4GeSe4
_chemical_formula_sum   'Li64 Ge16 Se64'
_cell_volume   3061.71341019
_cell_formula_units_Z   16
loop_
 _symmetry_equiv_pos_site_id
 _symmetry_equiv_pos_as_xyz
  1  'x, y, z'
loop_
 _atom_type_symbol
 _atom_type_oxidation_number
  Li+  1.0
  Ge4+  4.0
  Se2-  -2.0
loop_
 _atom_site_type_symbol
 _atom_site_label
 _atom_site_symmetry_multiplicity
 _atom_site_fract_x
 _atom_site_fract_y
 _atom_site_fract_z
 _atom_site_occupancy
  Li+  Li0  1  0.87500000  0.34571667  0.58030000  1.0
  Li+  Li1  1  0.37500000  0.34571667  0.58030000  1.0
  Li+  Li2  1  0.87500000  0.84571667  0.58030000  1.0
  Li+  Li3  1  0.37500000  0.84571667  0.58030000  1.0
  Li+  Li4  1  0.62500000  0.48761667  0.41970000  1.0
  Li+  Li5  1  0.12500000  0.48761667  0.41970000  1.0
  Li+  Li6  1  0.62500000  0.98761667  0.41970000  1.0
  Li+  Li7  1  0.12500000  0.98761667  0.41970000  1.0
  Li+  Li8  1  0.62500000  0.59571667  0.91970000  1.0
  Li+  Li9  1  0.12500000  0.59571667  0.91970000  1.0
  Li+  Li10  1  0.62500000  0.09571667  0.91970000  1.0
  Li+  Li11  1  0.12500000  0.09571667  0.91970000  1.0
  Li+  Li12  1  0.87500000  0.23761667  0.08030000  1.0
  Li+  Li13  1  0.37500000  0.23761667  0.08030000  1.0
  Li+  Li14  1  0.87500000  0.73761667  0.08030000  1.0
  Li+  Li15  1  0.37500000  0.73761667  0.08030000  1.0
  Li+  Li16  1  0.99425000  0.31966667  0.82950000  1.0
  Li+  Li17  1  0.49425000  0.31966667  0.82950000  1.0
  Li+  Li18  1  0.50575000  0.56966667  0.67050000  1.0
  Li+  Li19  1  0.00575000  0.56966667  0.67050000  1.0
  Li+  Li20  1  0.50575000  0.06966667  0.67050000  1.0
  Li+  Li21  1  0.00575000  0.06966667  0.67050000  1.0
  Li+  Li22  1  0.74425000  0.56966667  0.67050000  1.0
  Li+  Li23  1  0.24425000  0.56966667  0.67050000  1.0
  Li+  Li24  1  0.75575000  0.81966667  0.82950000  1.0
  Li+  Li25  1  0.25575000  0.81966667  0.82950000  1.0
  Li+  Li26  1  0.50575000  0.01366667  0.17050000  1.0
  Li+  Li27  1  0.00575000  0.01366667  0.17050000  1.0
  Li+  Li28  1  0.99425000  0.26366667  0.32950000  1.0
  Li+  Li29  1  0.49425000  0.26366667  0.32950000  1.0
  Li+  Li30  1  0.74250000  0.42686667  0.01530000  1.0
  Li+  Li31  1  0.24250000  0.42686667  0.01530000  1.0
  Li+  Li32  1  0.50750000  0.65646667  0.51530000  1.0
  Li+  Li33  1  0.00750000  0.65646667  0.51530000  1.0
  Li+  Li34  1  0.50750000  0.15646667  0.51530000  1.0
  Li+  Li35  1  0.00750000  0.15646667  0.51530000  1.0
  Li+  Li36  1  0.74250000  0.65646667  0.51530000  1.0
  Li+  Li37  1  0.24250000  0.65646667  0.51530000  1.0
  Li+  Li38  1  0.75750000  0.90646667  0.98470000  1.0
  Li+  Li39  1  0.25750000  0.90646667  0.98470000  1.0
  Li+  Li40  1  0.50750000  0.42686667  0.01530000  1.0
  Li+  Li41  1  0.00750000  0.42686667  0.01530000  1.0
  Li+  Li42  1  0.50750000  0.92686667  0.01530000  1.0
  Li+  Li43  1  0.00750000  0.92686667  0.01530000  1.0
  Li+  Li44  1  0.50830000  0.74141667  0.82530000  1.0
  Li+  Li45  1  0.00830000  0.74141667  0.82530000  1.0
  Li+  Li46  1  0.75830000  0.59191667  0.17470000  1.0
  Li+  Li47  1  0.25830000  0.59191667  0.17470000  1.0
  Li+  Li48  1  0.75830000  0.09191667  0.17470000  1.0
  Li+  Li49  1  0.25830000  0.09191667  0.17470000  1.0
  Li+  Li50  1  0.99170000  0.49141667  0.67470000  1.0
  Li+  Li51  1  0.49170000  0.49141667  0.67470000  1.0
  Li+  Li52  1  0.99170000  0.99141667  0.67470000  1.0
  Li+  Li53  1  0.49170000  0.99141667  0.67470000  1.0
  Li+  Li54  1  0.75830000  0.49141667  0.67470000  1.0
  Li+  Li55  1  0.25830000  0.49141667  0.67470000  1.0
  Li+  Li56  1  0.75830000  0.99141667  0.67470000  1.0
  Li+  Li57  1  0.25830000  0.99141667  0.67470000  1.0
  Li+  Li58  1  0.74170000  0.24141667  0.82530000  1.0
  Li+  Li59  1  0.24170000  0.24141667  0.82530000  1.0
  Li+  Li60  1  0.74170000  0.34191667  0.32530000  1.0
  Li+  Li61  1  0.24170000  0.34191667  0.32530000  1.0
  Li+  Li62  1  0.50830000  0.84191667  0.32530000  1.0
  Li+  Li63  1  0.00830000  0.84191667  0.32530000  1.0
  Ge4+  Ge64  1  0.62500000  0.34601667  0.58752000  1.0
  Ge4+  Ge65  1  0.12500000  0.34601667  0.58752000  1.0
  Ge4+  Ge66  1  0.62500000  0.84601667  0.58752000  1.0
  Ge4+  Ge67  1  0.12500000  0.84601667  0.58752000  1.0
  Ge4+  Ge68  1  0.87500000  0.48731667  0.41248000  1.0
  Ge4+  Ge69  1  0.37500000  0.48731667  0.41248000  1.0
  Ge4+  Ge70  1  0.87500000  0.98731667  0.41248000  1.0
  Ge4+  Ge71  1  0.37500000  0.98731667  0.41248000  1.0
  Ge4+  Ge72  1  0.87500000  0.59601667  0.91248000  1.0
  Ge4+  Ge73  1  0.37500000  0.59601667  0.91248000  1.0
  Ge4+  Ge74  1  0.87500000  0.09601667  0.91248000  1.0
  Ge4+  Ge75  1  0.37500000  0.09601667  0.91248000  1.0
  Ge4+  Ge76  1  0.62500000  0.23731667  0.08752000  1.0
  Ge4+  Ge77  1  0.12500000  0.23731667  0.08752000  1.0
  Ge4+  Ge78  1  0.62500000  0.73731667  0.08752000  1.0
  Ge4+  Ge79  1  0.12500000  0.73731667  0.08752000  1.0
  Se2-  Se80  1  0.50636000  0.28166667  0.65661000  1.0
  Se2-  Se81  1  0.00636000  0.28166667  0.65661000  1.0
  Se2-  Se82  1  0.50636000  0.78166667  0.65661000  1.0
  Se2-  Se83  1  0.00636000  0.78166667  0.65661000  1.0
  Se2-  Se84  1  0.75636000  0.55166667  0.34339000  1.0
  Se2-  Se85  1  0.25636000  0.55166667  0.34339000  1.0
  Se2-  Se86  1  0.75636000  0.05166667  0.34339000  1.0
  Se2-  Se87  1  0.25636000  0.05166667  0.34339000  1.0
  Se2-  Se88  1  0.99364000  0.53166667  0.84339000  1.0
  Se2-  Se89  1  0.49364000  0.53166667  0.84339000  1.0
  Se2-  Se90  1  0.99364000  0.03166667  0.84339000  1.0
  Se2-  Se91  1  0.49364000  0.03166667  0.84339000  1.0
  Se2-  Se92  1  0.75636000  0.53166667  0.84339000  1.0
  Se2-  Se93  1  0.25636000  0.53166667  0.84339000  1.0
  Se2-  Se94  1  0.75636000  0.03166667  0.84339000  1.0
  Se2-  Se95  1  0.25636000  0.03166667  0.84339000  1.0
  Se2-  Se96  1  0.74364000  0.28166667  0.65661000  1.0
  Se2-  Se97  1  0.24364000  0.28166667  0.65661000  1.0
  Se2-  Se98  1  0.74364000  0.78166667  0.65661000  1.0
  Se2-  Se99  1  0.24364000  0.78166667  0.65661000  1.0
  Se2-  Se100  1  0.99364000  0.55166667  0.34339000  1.0
  Se2-  Se101  1  0.49364000  0.55166667  0.34339000  1.0
  Se2-  Se102  1  0.99364000  0.05166667  0.34339000  1.0
  Se2-  Se103  1  0.49364000  0.05166667  0.34339000  1.0
  Se2-  Se104  1  0.74364000  0.30166667  0.15661000  1.0
  Se2-  Se105  1  0.24364000  0.30166667  0.15661000  1.0
  Se2-  Se106  1  0.74364000  0.80166667  0.15661000  1.0
  Se2-  Se107  1  0.24364000  0.80166667  0.15661000  1.0
  Se2-  Se108  1  0.50636000  0.30166667  0.15661000  1.0
  Se2-  Se109  1  0.00636000  0.30166667  0.15661000  1.0
  Se2-  Se110  1  0.50636000  0.80166667  0.15661000  1.0
  Se2-  Se111  1  0.00636000  0.80166667  0.15661000  1.0
  Se2-  Se112  1  0.87500000  0.27586667  0.90987000  1.0
  Se2-  Se113  1  0.37500000  0.27586667  0.90987000  1.0
  Se2-  Se114  1  0.87500000  0.77586667  0.90987000  1.0
  Se2-  Se115  1  0.37500000  0.77586667  0.90987000  1.0
  Se2-  Se116  1  0.62500000  0.55746667  0.09013000  1.0
  Se2-  Se117  1  0.12500000  0.55746667  0.09013000  1.0
  Se2-  Se118  1  0.62500000  0.05746667  0.09013000  1.0
  Se2-  Se119  1  0.12500000  0.05746667  0.09013000  1.0
  Se2-  Se120  1  0.62500000  0.52586667  0.59013000  1.0
  Se2-  Se121  1  0.12500000  0.52586667  0.59013000  1.0
  Se2-  Se122  1  0.62500000  0.02586667  0.59013000  1.0
  Se2-  Se123  1  0.12500000  0.02586667  0.59013000  1.0
  Se2-  Se124  1  0.87500000  0.30746667  0.40987000  1.0
  Se2-  Se125  1  0.37500000  0.30746667  0.40987000  1.0
  Se2-  Se126  1  0.87500000  0.80746667  0.40987000  1.0
  Se2-  Se127  1  0.37500000  0.80746667  0.40987000  1.0
  Se2-  Se128  1  0.62500000  0.30026667  0.93516000  1.0
  Se2-  Se129  1  0.12500000  0.30026667  0.93516000  1.0
  Se2-  Se130  1  0.62500000  0.80026667  0.93516000  1.0
  Se2-  Se131  1  0.12500000  0.80026667  0.93516000  1.0
  Se2-  Se132  1  0.87500000  0.53306667  0.06484000  1.0
  Se2-  Se133  1  0.37500000  0.53306667  0.06484000  1.0
  Se2-  Se134  1  0.87500000  0.03306667  0.06484000  1.0
  Se2-  Se135  1  0.37500000  0.03306667  0.06484000  1.0
  Se2-  Se136  1  0.87500000  0.55026667  0.56484000  1.0
  Se2-  Se137  1  0.37500000  0.55026667  0.56484000  1.0
  Se2-  Se138  1  0.87500000  0.05026667  0.56484000  1.0
  Se2-  Se139  1  0.37500000  0.05026667  0.56484000  1.0
  Se2-  Se140  1  0.62500000  0.28306667  0.43516000  1.0
  Se2-  Se141  1  0.12500000  0.28306667  0.43516000  1.0
  Se2-  Se142  1  0.62500000  0.78306667  0.43516000  1.0
  Se2-  Se143  1  0.12500000  0.78306667  0.43516000  1.0
