# generated using pymatgen
data_Li4GeSe4
_symmetry_space_group_name_H-M   'P 1'
_cell_length_a   12.98598000
_cell_length_b   16.44746000
_cell_length_c   14.59532000
_cell_angle_alpha   90.00000000
_cell_angle_beta   90.00000000
_cell_angle_gamma   90.00000000
_symmetry_Int_Tables_number   1
_chemical_formula_structural   Li4GeSe4
_chemical_formula_sum   'Li64 Ge16 Se64'
_cell_volume   3117.36166023
_cell_formula_units_Z   16
loop_
 _symmetry_equiv_pos_site_id
 _symmetry_equiv_pos_as_xyz
  1  'x, y, z'
loop_
 _atom_type_symbol
 _atom_type_oxidation_number
  Li+  1.0
  Ge4+  4.0
  Se2-  -2.0
loop_
 _atom_site_type_symbol
 _atom_site_label
 _atom_site_symmetry_multiplicity
 _atom_site_fract_x
 _atom_site_fract_y
 _atom_site_fract_z
 _atom_site_occupancy
  Li+  Li1  1  0.32095000  0.12500000  0.58030000  1.0
  Li+  Li1  1  0.32095000  0.62500000  0.58030000  1.0
  Li+  Li1  1  0.82095000  0.12500000  0.58030000  1.0
  Li+  Li1  1  0.82095000  0.62500000  0.58030000  1.0
  Li+  Li1  1  0.17905000  0.37500000  0.41970000  1.0
  Li+  Li1  1  0.17905000  0.87500000  0.41970000  1.0
  Li+  Li1  1  0.67905000  0.37500000  0.41970000  1.0
  Li+  Li1  1  0.67905000  0.87500000  0.41970000  1.0
  Li+  Li1  1  0.07095000  0.37500000  0.91970000  1.0
  Li+  Li1  1  0.07095000  0.87500000  0.91970000  1.0
  Li+  Li1  1  0.57095000  0.37500000  0.91970000  1.0
  Li+  Li1  1  0.57095000  0.87500000  0.91970000  1.0
  Li+  Li1  1  0.42905000  0.12500000  0.08030000  1.0
  Li+  Li1  1  0.42905000  0.62500000  0.08030000  1.0
  Li+  Li1  1  0.92905000  0.12500000  0.08030000  1.0
  Li+  Li1  1  0.92905000  0.62500000  0.08030000  1.0
  Li+  Li8  1  0.34700000  0.00575000  0.82950000  1.0
  Li+  Li8  1  0.34700000  0.50575000  0.82950000  1.0
  Li+  Li9  1  0.09700000  0.49425000  0.67050000  1.0
  Li+  Li9  1  0.09700000  0.99425000  0.67050000  1.0
  Li+  Li10  1  0.59700000  0.49425000  0.67050000  1.0
  Li+  Li10  1  0.59700000  0.99425000  0.67050000  1.0
  Li+  Li11  1  0.09700000  0.25575000  0.67050000  1.0
  Li+  Li11  1  0.09700000  0.75575000  0.67050000  1.0
  Li+  Li12  1  0.84700000  0.24425000  0.82950000  1.0
  Li+  Li12  1  0.84700000  0.74425000  0.82950000  1.0
  Li+  Li13  1  0.65300000  0.49425000  0.17050000  1.0
  Li+  Li13  1  0.65300000  0.99425000  0.17050000  1.0
  Li+  Li14  1  0.40300000  0.00575000  0.32950000  1.0
  Li+  Li14  1  0.40300000  0.50575000  0.32950000  1.0
  Li+  Li15  1  0.23980000  0.25750000  0.01530000  1.0
  Li+  Li15  1  0.23980000  0.75750000  0.01530000  1.0
  Li+  Li16  1  0.01020000  0.49250000  0.51530000  1.0
  Li+  Li16  1  0.01020000  0.99250000  0.51530000  1.0
  Li+  Li17  1  0.51020000  0.49250000  0.51530000  1.0
  Li+  Li17  1  0.51020000  0.99250000  0.51530000  1.0
  Li+  Li18  1  0.01020000  0.25750000  0.51530000  1.0
  Li+  Li18  1  0.01020000  0.75750000  0.51530000  1.0
  Li+  Li19  1  0.76020000  0.24250000  0.98470000  1.0
  Li+  Li19  1  0.76020000  0.74250000  0.98470000  1.0
  Li+  Li20  1  0.23980000  0.49250000  0.01530000  1.0
  Li+  Li20  1  0.23980000  0.99250000  0.01530000  1.0
  Li+  Li21  1  0.73980000  0.49250000  0.01530000  1.0
  Li+  Li21  1  0.73980000  0.99250000  0.01530000  1.0
  Li+  Li22  1  0.92525000  0.49170000  0.82530000  1.0
  Li+  Li22  1  0.92525000  0.99170000  0.82530000  1.0
  Li+  Li23  1  0.07475000  0.24170000  0.17470000  1.0
  Li+  Li23  1  0.07475000  0.74170000  0.17470000  1.0
  Li+  Li24  1  0.57475000  0.24170000  0.17470000  1.0
  Li+  Li24  1  0.57475000  0.74170000  0.17470000  1.0
  Li+  Li25  1  0.17525000  0.00830000  0.67470000  1.0
  Li+  Li25  1  0.17525000  0.50830000  0.67470000  1.0
  Li+  Li26  1  0.67525000  0.00830000  0.67470000  1.0
  Li+  Li26  1  0.67525000  0.50830000  0.67470000  1.0
  Li+  Li27  1  0.17525000  0.24170000  0.67470000  1.0
  Li+  Li27  1  0.17525000  0.74170000  0.67470000  1.0
  Li+  Li28  1  0.67525000  0.24170000  0.67470000  1.0
  Li+  Li28  1  0.67525000  0.74170000  0.67470000  1.0
  Li+  Li29  1  0.42525000  0.25830000  0.82530000  1.0
  Li+  Li29  1  0.42525000  0.75830000  0.82530000  1.0
  Li+  Li30  1  0.32475000  0.25830000  0.32530000  1.0
  Li+  Li30  1  0.32475000  0.75830000  0.32530000  1.0
  Li+  Li31  1  0.82475000  0.49170000  0.32530000  1.0
  Li+  Li31  1  0.82475000  0.99170000  0.32530000  1.0
  Ge4+  Ge1  1  0.32065000  0.37500000  0.58752000  1.0
  Ge4+  Ge1  1  0.32065000  0.87500000  0.58752000  1.0
  Ge4+  Ge1  1  0.82065000  0.37500000  0.58752000  1.0
  Ge4+  Ge1  1  0.82065000  0.87500000  0.58752000  1.0
  Ge4+  Ge1  1  0.17935000  0.12500000  0.41248000  1.0
  Ge4+  Ge1  1  0.17935000  0.62500000  0.41248000  1.0
  Ge4+  Ge1  1  0.67935000  0.12500000  0.41248000  1.0
  Ge4+  Ge1  1  0.67935000  0.62500000  0.41248000  1.0
  Ge4+  Ge1  1  0.07065000  0.12500000  0.91248000  1.0
  Ge4+  Ge1  1  0.07065000  0.62500000  0.91248000  1.0
  Ge4+  Ge1  1  0.57065000  0.12500000  0.91248000  1.0
  Ge4+  Ge1  1  0.57065000  0.62500000  0.91248000  1.0
  Ge4+  Ge1  1  0.42935000  0.37500000  0.08752000  1.0
  Ge4+  Ge1  1  0.42935000  0.87500000  0.08752000  1.0
  Ge4+  Ge1  1  0.92935000  0.37500000  0.08752000  1.0
  Ge4+  Ge1  1  0.92935000  0.87500000  0.08752000  1.0
  Se2-  Se1  1  0.38500000  0.49364000  0.65661000  1.0
  Se2-  Se1  1  0.38500000  0.99364000  0.65661000  1.0
  Se2-  Se1  1  0.88500000  0.49364000  0.65661000  1.0
  Se2-  Se1  1  0.88500000  0.99364000  0.65661000  1.0
  Se2-  Se1  1  0.11500000  0.24364000  0.34339000  1.0
  Se2-  Se1  1  0.11500000  0.74364000  0.34339000  1.0
  Se2-  Se1  1  0.61500000  0.24364000  0.34339000  1.0
  Se2-  Se1  1  0.61500000  0.74364000  0.34339000  1.0
  Se2-  Se1  1  0.13500000  0.00636000  0.84339000  1.0
  Se2-  Se1  1  0.13500000  0.50636000  0.84339000  1.0
  Se2-  Se1  1  0.63500000  0.00636000  0.84339000  1.0
  Se2-  Se1  1  0.63500000  0.50636000  0.84339000  1.0
  Se2-  Se1  1  0.13500000  0.24364000  0.84339000  1.0
  Se2-  Se1  1  0.13500000  0.74364000  0.84339000  1.0
  Se2-  Se1  1  0.63500000  0.24364000  0.84339000  1.0
  Se2-  Se1  1  0.63500000  0.74364000  0.84339000  1.0
  Se2-  Se1  1  0.38500000  0.25636000  0.65661000  1.0
  Se2-  Se1  1  0.38500000  0.75636000  0.65661000  1.0
  Se2-  Se1  1  0.88500000  0.25636000  0.65661000  1.0
  Se2-  Se1  1  0.88500000  0.75636000  0.65661000  1.0
  Se2-  Se1  1  0.11500000  0.00636000  0.34339000  1.0
  Se2-  Se1  1  0.11500000  0.50636000  0.34339000  1.0
  Se2-  Se1  1  0.61500000  0.00636000  0.34339000  1.0
  Se2-  Se1  1  0.61500000  0.50636000  0.34339000  1.0
  Se2-  Se1  1  0.36500000  0.25636000  0.15661000  1.0
  Se2-  Se1  1  0.36500000  0.75636000  0.15661000  1.0
  Se2-  Se1  1  0.86500000  0.25636000  0.15661000  1.0
  Se2-  Se1  1  0.86500000  0.75636000  0.15661000  1.0
  Se2-  Se1  1  0.36500000  0.49364000  0.15661000  1.0
  Se2-  Se1  1  0.36500000  0.99364000  0.15661000  1.0
  Se2-  Se1  1  0.86500000  0.49364000  0.15661000  1.0
  Se2-  Se1  1  0.86500000  0.99364000  0.15661000  1.0
  Se2-  Se2  1  0.39080000  0.12500000  0.90987000  1.0
  Se2-  Se2  1  0.39080000  0.62500000  0.90987000  1.0
  Se2-  Se2  1  0.89080000  0.12500000  0.90987000  1.0
  Se2-  Se2  1  0.89080000  0.62500000  0.90987000  1.0
  Se2-  Se2  1  0.10920000  0.37500000  0.09013000  1.0
  Se2-  Se2  1  0.10920000  0.87500000  0.09013000  1.0
  Se2-  Se2  1  0.60920000  0.37500000  0.09013000  1.0
  Se2-  Se2  1  0.60920000  0.87500000  0.09013000  1.0
  Se2-  Se2  1  0.14080000  0.37500000  0.59013000  1.0
  Se2-  Se2  1  0.14080000  0.87500000  0.59013000  1.0
  Se2-  Se2  1  0.64080000  0.37500000  0.59013000  1.0
  Se2-  Se2  1  0.64080000  0.87500000  0.59013000  1.0
  Se2-  Se2  1  0.35920000  0.12500000  0.40987000  1.0
  Se2-  Se2  1  0.35920000  0.62500000  0.40987000  1.0
  Se2-  Se2  1  0.85920000  0.12500000  0.40987000  1.0
  Se2-  Se2  1  0.85920000  0.62500000  0.40987000  1.0
  Se2-  Se3  1  0.36640000  0.37500000  0.93516000  1.0
  Se2-  Se3  1  0.36640000  0.87500000  0.93516000  1.0
  Se2-  Se3  1  0.86640000  0.37500000  0.93516000  1.0
  Se2-  Se3  1  0.86640000  0.87500000  0.93516000  1.0
  Se2-  Se3  1  0.13360000  0.12500000  0.06484000  1.0
  Se2-  Se3  1  0.13360000  0.62500000  0.06484000  1.0
  Se2-  Se3  1  0.63360000  0.12500000  0.06484000  1.0
  Se2-  Se3  1  0.63360000  0.62500000  0.06484000  1.0
  Se2-  Se3  1  0.11640000  0.12500000  0.56484000  1.0
  Se2-  Se3  1  0.11640000  0.62500000  0.56484000  1.0
  Se2-  Se3  1  0.61640000  0.12500000  0.56484000  1.0
  Se2-  Se3  1  0.61640000  0.62500000  0.56484000  1.0
  Se2-  Se3  1  0.38360000  0.37500000  0.43516000  1.0
  Se2-  Se3  1  0.38360000  0.87500000  0.43516000  1.0
  Se2-  Se3  1  0.88360000  0.37500000  0.43516000  1.0
  Se2-  Se3  1  0.88360000  0.87500000  0.43516000  1.0
