# generated using pymatgen
data_Li27Zr3In7Cl60
_symmetry_space_group_name_H-M   'P 1'
_cell_length_a   32.05100000
_cell_length_b   11.08940000
_cell_length_c   12.75620000
_cell_angle_alpha   90.00000000
_cell_angle_beta   109.78000000
_cell_angle_gamma   90.00000000
_symmetry_Int_Tables_number   1
_chemical_formula_structural   Li27Zr3In7Cl60
_chemical_formula_sum   'Li54 Zr6 In14 Cl120'
_cell_volume   4266.38548711
_cell_formula_units_Z   2
loop_
 _symmetry_equiv_pos_site_id
 _symmetry_equiv_pos_as_xyz
  1  'x, y, z'
loop_
 _atom_type_symbol
 _atom_type_oxidation_number
  Li+  1.0
  Zr4+  4.0
  In3+  3.0
  Cl-  -1.0
loop_
 _atom_site_type_symbol
 _atom_site_label
 _atom_site_symmetry_multiplicity
 _atom_site_fract_x
 _atom_site_fract_y
 _atom_site_fract_z
 _atom_site_occupancy
  Li+  Li0  1  0.40000000  0.16600000  0.25000000  1.0
  Li+  Li0  1  0.40000000  0.16600000  0.75000000  1.0
  Li+  Li1  1  0.80000000  0.16600000  0.25000000  1.0
  Li+  Li1  1  0.80000000  0.16600000  0.75000000  1.0
  Li+  Li2  1  0.20000000  0.83400000  0.25000000  1.0
  Li+  Li2  1  0.20000000  0.83400000  0.75000000  1.0
  Li+  Li3  1  0.60000000  0.83400000  0.25000000  1.0
  Li+  Li3  1  0.60000000  0.83400000  0.75000000  1.0
  Li+  Li4  1  0.50000000  0.66600000  0.25000000  1.0
  Li+  Li4  1  0.50000000  0.66600000  0.75000000  1.0
  Li+  Li5  1  0.30000000  0.33400000  0.25000000  1.0
  Li+  Li5  1  0.30000000  0.33400000  0.75000000  1.0
  Li+  Li6  1  0.70000000  0.33400000  0.25000000  1.0
  Li+  Li6  1  0.70000000  0.33400000  0.75000000  1.0
  Li+  Li7  1  0.10000000  0.00000000  0.25000000  1.0
  Li+  Li7  1  0.10000000  0.00000000  0.75000000  1.0
  Li+  Li8  1  0.30000000  0.00000000  0.25000000  1.0
  Li+  Li8  1  0.30000000  0.00000000  0.75000000  1.0
  Li+  Li9  1  0.50000000  0.00000000  0.25000000  1.0
  Li+  Li9  1  0.50000000  0.00000000  0.75000000  1.0
  Li+  Li10  1  0.90000000  0.00000000  0.25000000  1.0
  Li+  Li10  1  0.90000000  0.00000000  0.75000000  1.0
  Li+  Li11  1  0.40000000  0.50000000  0.25000000  1.0
  Li+  Li11  1  0.40000000  0.50000000  0.75000000  1.0
  Li+  Li12  1  0.40000000  0.28700000  0.00000000  1.0
  Li+  Li12  1  0.40000000  0.28700000  0.50000000  1.0
  Li+  Li13  1  0.60000000  0.28700000  1.00000000  1.0
  Li+  Li13  1  0.60000000  0.28700000  0.50000000  1.0
  Li+  Li14  1  0.80000000  0.28700000  0.00000000  1.0
  Li+  Li14  1  0.80000000  0.28700000  0.50000000  1.0
  Li+  Li15  1  0.20000000  0.71300000  0.00000000  1.0
  Li+  Li15  1  0.20000000  0.71300000  0.50000000  1.0
  Li+  Li16  1  0.40000000  0.71300000  0.00000000  1.0
  Li+  Li16  1  0.40000000  0.71300000  0.50000000  1.0
  Li+  Li17  1  0.60000000  0.71300000  0.00000000  1.0
  Li+  Li17  1  0.60000000  0.71300000  0.50000000  1.0
  Li+  Li18  1  0.10000000  0.78700000  0.00000000  1.0
  Li+  Li18  1  0.10000000  0.78700000  0.50000000  1.0
  Li+  Li19  1  0.30000000  0.78700000  0.00000000  1.0
  Li+  Li19  1  0.30000000  0.78700000  0.50000000  1.0
  Li+  Li20  1  0.50000000  0.78700000  0.00000000  1.0
  Li+  Li20  1  0.50000000  0.78700000  0.50000000  1.0
  Li+  Li21  1  0.70000000  0.78700000  0.00000000  1.0
  Li+  Li21  1  0.70000000  0.78700000  0.50000000  1.0
  Li+  Li22  1  0.90000000  0.78700000  1.00000000  1.0
  Li+  Li22  1  0.90000000  0.78700000  0.50000000  1.0
  Li+  Li23  1  0.10000000  0.21300000  0.00000000  1.0
  Li+  Li23  1  0.10000000  0.21300000  0.50000000  1.0
  Li+  Li24  1  0.50000000  0.21300000  0.00000000  1.0
  Li+  Li24  1  0.50000000  0.21300000  0.50000000  1.0
  Li+  Li25  1  0.70000000  0.21300000  1.00000000  1.0
  Li+  Li25  1  0.70000000  0.21300000  0.50000000  1.0
  Li+  Li26  1  0.90000000  0.21300000  1.00000000  1.0
  Li+  Li26  1  0.90000000  0.21300000  0.50000000  1.0
  Zr4+  Zr27  1  0.80000000  0.71300000  0.00000000  1.0
  Zr4+  Zr27  1  0.80000000  0.71300000  0.50000000  1.0
  Zr4+  Zr28  1  0.10000000  0.50000000  0.00000000  1.0
  Zr4+  Zr28  1  0.10000000  0.50000000  0.50000000  1.0
  Zr4+  Zr29  1  0.30000000  0.50000000  0.00000000  1.0
  Zr4+  Zr29  1  0.30000000  0.50000000  0.50000000  1.0
  In3+  In30  1  0.00000000  0.28700000  0.00000000  1.0
  In3+  In30  1  0.00000000  0.28700000  0.50000000  1.0
  In3+  In31  1  0.00000000  0.71300000  0.00000000  1.0
  In3+  In31  1  0.00000000  0.71300000  0.50000000  1.0
  In3+  In32  1  0.20000000  0.00000000  0.00000000  1.0
  In3+  In32  1  0.20000000  0.00000000  0.50000000  1.0
  In3+  In33  1  0.60000000  0.00000000  1.00000000  1.0
  In3+  In33  1  0.60000000  0.00000000  0.50000000  1.0
  In3+  In34  1  0.80000000  0.00000000  0.00000000  1.0
  In3+  In34  1  0.80000000  0.00000000  0.50000000  1.0
  In3+  In35  1  0.50000000  0.50000000  0.00000000  1.0
  In3+  In35  1  0.50000000  0.50000000  0.50000000  1.0
  In3+  In36  1  0.90000000  0.50000000  1.00000000  1.0
  In3+  In36  1  0.90000000  0.50000000  0.50000000  1.0
  Cl-  Cl1  1  0.04862000  0.00000000  0.38195000  1.0
  Cl-  Cl1  1  0.04862000  0.00000000  0.88195000  1.0
  Cl-  Cl1  1  0.24862000  0.00000000  0.38195000  1.0
  Cl-  Cl1  1  0.24862000  0.00000000  0.88195000  1.0
  Cl-  Cl1  1  0.44862000  0.00000000  0.38195000  1.0
  Cl-  Cl1  1  0.44862000  0.00000000  0.88195000  1.0
  Cl-  Cl1  1  0.64862000  0.00000000  0.38195000  1.0
  Cl-  Cl1  1  0.64862000  0.00000000  0.88195000  1.0
  Cl-  Cl1  1  0.84862000  0.00000000  0.38195000  1.0
  Cl-  Cl1  1  0.84862000  0.00000000  0.88195000  1.0
  Cl-  Cl1  1  0.15138000  0.00000000  0.11805000  1.0
  Cl-  Cl1  1  0.15138000  0.00000000  0.61805000  1.0
  Cl-  Cl1  1  0.35138000  0.00000000  0.11805000  1.0
  Cl-  Cl1  1  0.35138000  0.00000000  0.61805000  1.0
  Cl-  Cl1  1  0.55138000  0.00000000  0.11805000  1.0
  Cl-  Cl1  1  0.55138000  0.00000000  0.61805000  1.0
  Cl-  Cl1  1  0.75138000  0.00000000  0.11805000  1.0
  Cl-  Cl1  1  0.75138000  0.00000000  0.61805000  1.0
  Cl-  Cl1  1  0.95138000  0.00000000  0.11805000  1.0
  Cl-  Cl1  1  0.95138000  0.00000000  0.61805000  1.0
  Cl-  Cl1  1  0.14862000  0.50000000  0.38195000  1.0
  Cl-  Cl1  1  0.14862000  0.50000000  0.88195000  1.0
  Cl-  Cl1  1  0.34862000  0.50000000  0.38195000  1.0
  Cl-  Cl1  1  0.34862000  0.50000000  0.88195000  1.0
  Cl-  Cl1  1  0.54862000  0.50000000  0.38195000  1.0
  Cl-  Cl1  1  0.54862000  0.50000000  0.88195000  1.0
  Cl-  Cl1  1  0.74862000  0.50000000  0.38195000  1.0
  Cl-  Cl1  1  0.74862000  0.50000000  0.88195000  1.0
  Cl-  Cl1  1  0.94862000  0.50000000  0.38195000  1.0
  Cl-  Cl1  1  0.94862000  0.50000000  0.88195000  1.0
  Cl-  Cl1  1  0.05138000  0.50000000  0.11805000  1.0
  Cl-  Cl1  1  0.05138000  0.50000000  0.61805000  1.0
  Cl-  Cl1  1  0.25138000  0.50000000  0.11805000  1.0
  Cl-  Cl1  1  0.25138000  0.50000000  0.61805000  1.0
  Cl-  Cl1  1  0.45138000  0.50000000  0.11805000  1.0
  Cl-  Cl1  1  0.45138000  0.50000000  0.61805000  1.0
  Cl-  Cl1  1  0.65138000  0.50000000  0.11805000  1.0
  Cl-  Cl1  1  0.65138000  0.50000000  0.61805000  1.0
  Cl-  Cl1  1  0.85138000  0.50000000  0.11805000  1.0
  Cl-  Cl1  1  0.85138000  0.50000000  0.61805000  1.0
  Cl-  Cl2  1  0.04882000  0.16270000  0.11955000  1.0
  Cl-  Cl2  1  0.04882000  0.16270000  0.61955000  1.0
  Cl-  Cl2  1  0.24882000  0.16270000  0.11955000  1.0
  Cl-  Cl2  1  0.24882000  0.16270000  0.61955000  1.0
  Cl-  Cl2  1  0.44882000  0.16270000  0.11955000  1.0
  Cl-  Cl2  1  0.44882000  0.16270000  0.61955000  1.0
  Cl-  Cl2  1  0.64882000  0.16270000  0.11955000  1.0
  Cl-  Cl2  1  0.64882000  0.16270000  0.61955000  1.0
  Cl-  Cl2  1  0.84882000  0.16270000  0.11955000  1.0
  Cl-  Cl2  1  0.84882000  0.16270000  0.61955000  1.0
  Cl-  Cl2  1  0.15118000  0.83730000  0.38045000  1.0
  Cl-  Cl2  1  0.15118000  0.83730000  0.88045000  1.0
  Cl-  Cl2  1  0.35118000  0.83730000  0.38045000  1.0
  Cl-  Cl2  1  0.35118000  0.83730000  0.88045000  1.0
  Cl-  Cl2  1  0.55118000  0.83730000  0.38045000  1.0
  Cl-  Cl2  1  0.55118000  0.83730000  0.88045000  1.0
  Cl-  Cl2  1  0.75118000  0.83730000  0.38045000  1.0
  Cl-  Cl2  1  0.75118000  0.83730000  0.88045000  1.0
  Cl-  Cl2  1  0.95118000  0.83730000  0.38045000  1.0
  Cl-  Cl2  1  0.95118000  0.83730000  0.88045000  1.0
  Cl-  Cl2  1  0.15118000  0.16270000  0.38045000  1.0
  Cl-  Cl2  1  0.15118000  0.16270000  0.88045000  1.0
  Cl-  Cl2  1  0.35118000  0.16270000  0.38045000  1.0
  Cl-  Cl2  1  0.35118000  0.16270000  0.88045000  1.0
  Cl-  Cl2  1  0.55118000  0.16270000  0.38045000  1.0
  Cl-  Cl2  1  0.55118000  0.16270000  0.88045000  1.0
  Cl-  Cl2  1  0.75118000  0.16270000  0.38045000  1.0
  Cl-  Cl2  1  0.75118000  0.16270000  0.88045000  1.0
  Cl-  Cl2  1  0.95118000  0.16270000  0.38045000  1.0
  Cl-  Cl2  1  0.95118000  0.16270000  0.88045000  1.0
  Cl-  Cl2  1  0.04882000  0.83730000  0.11955000  1.0
  Cl-  Cl2  1  0.04882000  0.83730000  0.61955000  1.0
  Cl-  Cl2  1  0.24882000  0.83730000  0.11955000  1.0
  Cl-  Cl2  1  0.24882000  0.83730000  0.61955000  1.0
  Cl-  Cl2  1  0.44882000  0.83730000  0.11955000  1.0
  Cl-  Cl2  1  0.44882000  0.83730000  0.61955000  1.0
  Cl-  Cl2  1  0.64882000  0.83730000  0.11955000  1.0
  Cl-  Cl2  1  0.64882000  0.83730000  0.61955000  1.0
  Cl-  Cl2  1  0.84882000  0.83730000  0.11955000  1.0
  Cl-  Cl2  1  0.84882000  0.83730000  0.61955000  1.0
  Cl-  Cl2  1  0.14882000  0.66270000  0.11955000  1.0
  Cl-  Cl2  1  0.14882000  0.66270000  0.61955000  1.0
  Cl-  Cl2  1  0.34882000  0.66270000  0.11955000  1.0
  Cl-  Cl2  1  0.34882000  0.66270000  0.61955000  1.0
  Cl-  Cl2  1  0.54882000  0.66270000  0.11955000  1.0
  Cl-  Cl2  1  0.54882000  0.66270000  0.61955000  1.0
  Cl-  Cl2  1  0.74882000  0.66270000  0.11955000  1.0
  Cl-  Cl2  1  0.74882000  0.66270000  0.61955000  1.0
  Cl-  Cl2  1  0.94882000  0.66270000  0.11955000  1.0
  Cl-  Cl2  1  0.94882000  0.66270000  0.61955000  1.0
  Cl-  Cl2  1  0.05118000  0.33730000  0.38045000  1.0
  Cl-  Cl2  1  0.05118000  0.33730000  0.88045000  1.0
  Cl-  Cl2  1  0.25118000  0.33730000  0.38045000  1.0
  Cl-  Cl2  1  0.25118000  0.33730000  0.88045000  1.0
  Cl-  Cl2  1  0.45118000  0.33730000  0.38045000  1.0
  Cl-  Cl2  1  0.45118000  0.33730000  0.88045000  1.0
  Cl-  Cl2  1  0.65118000  0.33730000  0.38045000  1.0
  Cl-  Cl2  1  0.65118000  0.33730000  0.88045000  1.0
  Cl-  Cl2  1  0.85118000  0.33730000  0.38045000  1.0
  Cl-  Cl2  1  0.85118000  0.33730000  0.88045000  1.0
  Cl-  Cl2  1  0.05118000  0.66270000  0.38045000  1.0
  Cl-  Cl2  1  0.05118000  0.66270000  0.88045000  1.0
  Cl-  Cl2  1  0.25118000  0.66270000  0.38045000  1.0
  Cl-  Cl2  1  0.25118000  0.66270000  0.88045000  1.0
  Cl-  Cl2  1  0.45118000  0.66270000  0.38045000  1.0
  Cl-  Cl2  1  0.45118000  0.66270000  0.88045000  1.0
  Cl-  Cl2  1  0.65118000  0.66270000  0.38045000  1.0
  Cl-  Cl2  1  0.65118000  0.66270000  0.88045000  1.0
  Cl-  Cl2  1  0.85118000  0.66270000  0.38045000  1.0
  Cl-  Cl2  1  0.85118000  0.66270000  0.88045000  1.0
  Cl-  Cl2  1  0.14882000  0.33730000  0.11955000  1.0
  Cl-  Cl2  1  0.14882000  0.33730000  0.61955000  1.0
  Cl-  Cl2  1  0.34882000  0.33730000  0.11955000  1.0
  Cl-  Cl2  1  0.34882000  0.33730000  0.61955000  1.0
  Cl-  Cl2  1  0.54882000  0.33730000  0.11955000  1.0
  Cl-  Cl2  1  0.54882000  0.33730000  0.61955000  1.0
  Cl-  Cl2  1  0.74882000  0.33730000  0.11955000  1.0
  Cl-  Cl2  1  0.74882000  0.33730000  0.61955000  1.0
  Cl-  Cl2  1  0.94882000  0.33730000  0.11955000  1.0
  Cl-  Cl2  1  0.94882000  0.33730000  0.61955000  1.0
