# generated using pymatgen
data_Li3PO4
_symmetry_space_group_name_H-M   'P 1'
_cell_length_a   9.85200000
_cell_length_b   18.38700000
_cell_length_c   10.48300000
_cell_angle_alpha   90.00000000
_cell_angle_beta   90.00000000
_cell_angle_gamma   90.00000000
_symmetry_Int_Tables_number   1
_chemical_formula_structural   Li3PO4
_chemical_formula_sum   'Li72 P24 O96'
_cell_volume   1898.98207369
_cell_formula_units_Z   24
loop_
 _symmetry_equiv_pos_site_id
 _symmetry_equiv_pos_as_xyz
  1  'x, y, z'
loop_
 _atom_type_symbol
 _atom_type_oxidation_number
  Li+  1.0
  P5+  5.0
  O2-  -2.0
loop_
 _atom_site_type_symbol
 _atom_site_label
 _atom_site_symmetry_multiplicity
 _atom_site_fract_x
 _atom_site_fract_y
 _atom_site_fract_z
 _atom_site_occupancy
  Li+  Li1  1  0.09850000  0.16710000  0.66350000  1.0
  Li+  Li1  1  0.09850000  0.50043333  0.66350000  1.0
  Li+  Li1  1  0.09850000  0.83376667  0.66350000  1.0
  Li+  Li1  1  0.59850000  0.16710000  0.66350000  1.0
  Li+  Li1  1  0.59850000  0.50043333  0.66350000  1.0
  Li+  Li1  1  0.59850000  0.83376667  0.66350000  1.0
  Li+  Li1  1  0.15150000  0.33290000  0.16350000  1.0
  Li+  Li1  1  0.15150000  0.66623333  0.16350000  1.0
  Li+  Li1  1  0.15150000  0.99956667  0.16350000  1.0
  Li+  Li1  1  0.65150000  0.33290000  0.16350000  1.0
  Li+  Li1  1  0.65150000  0.66623333  0.16350000  1.0
  Li+  Li1  1  0.65150000  0.99956667  0.16350000  1.0
  Li+  Li1  1  0.40150000  0.00043333  0.33650000  1.0
  Li+  Li1  1  0.40150000  0.33376667  0.33650000  1.0
  Li+  Li1  1  0.40150000  0.66710000  0.33650000  1.0
  Li+  Li1  1  0.90150000  0.00043333  0.33650000  1.0
  Li+  Li1  1  0.90150000  0.33376667  0.33650000  1.0
  Li+  Li1  1  0.90150000  0.66710000  0.33650000  1.0
  Li+  Li1  1  0.34850000  0.16623333  0.83650000  1.0
  Li+  Li1  1  0.34850000  0.49956667  0.83650000  1.0
  Li+  Li1  1  0.34850000  0.83290000  0.83650000  1.0
  Li+  Li1  1  0.84850000  0.16623333  0.83650000  1.0
  Li+  Li1  1  0.84850000  0.49956667  0.83650000  1.0
  Li+  Li1  1  0.84850000  0.83290000  0.83650000  1.0
  Li+  Li1  1  0.40150000  0.16623333  0.33650000  1.0
  Li+  Li1  1  0.40150000  0.49956667  0.33650000  1.0
  Li+  Li1  1  0.40150000  0.83290000  0.33650000  1.0
  Li+  Li1  1  0.90150000  0.16623333  0.33650000  1.0
  Li+  Li1  1  0.90150000  0.49956667  0.33650000  1.0
  Li+  Li1  1  0.90150000  0.83290000  0.33650000  1.0
  Li+  Li1  1  0.34850000  0.00043333  0.83650000  1.0
  Li+  Li1  1  0.34850000  0.33376667  0.83650000  1.0
  Li+  Li1  1  0.34850000  0.66710000  0.83650000  1.0
  Li+  Li1  1  0.84850000  0.00043333  0.83650000  1.0
  Li+  Li1  1  0.84850000  0.33376667  0.83650000  1.0
  Li+  Li1  1  0.84850000  0.66710000  0.83650000  1.0
  Li+  Li1  1  0.09850000  0.33290000  0.66350000  1.0
  Li+  Li1  1  0.09850000  0.66623333  0.66350000  1.0
  Li+  Li1  1  0.09850000  0.99956667  0.66350000  1.0
  Li+  Li1  1  0.59850000  0.33290000  0.66350000  1.0
  Li+  Li1  1  0.59850000  0.66623333  0.66350000  1.0
  Li+  Li1  1  0.59850000  0.99956667  0.66350000  1.0
  Li+  Li1  1  0.15150000  0.16710000  0.16350000  1.0
  Li+  Li1  1  0.15150000  0.50043333  0.16350000  1.0
  Li+  Li1  1  0.15150000  0.83376667  0.16350000  1.0
  Li+  Li1  1  0.65150000  0.16710000  0.16350000  1.0
  Li+  Li1  1  0.65150000  0.50043333  0.16350000  1.0
  Li+  Li1  1  0.65150000  0.83376667  0.16350000  1.0
  Li+  Li2  1  0.14700000  0.25000000  0.92330000  1.0
  Li+  Li2  1  0.14700000  0.58333333  0.92330000  1.0
  Li+  Li2  1  0.14700000  0.91666667  0.92330000  1.0
  Li+  Li2  1  0.64700000  0.25000000  0.92330000  1.0
  Li+  Li2  1  0.64700000  0.58333333  0.92330000  1.0
  Li+  Li2  1  0.64700000  0.91666667  0.92330000  1.0
  Li+  Li2  1  0.10300000  0.25000000  0.42330000  1.0
  Li+  Li2  1  0.10300000  0.58333333  0.42330000  1.0
  Li+  Li2  1  0.10300000  0.91666667  0.42330000  1.0
  Li+  Li2  1  0.60300000  0.25000000  0.42330000  1.0
  Li+  Li2  1  0.60300000  0.58333333  0.42330000  1.0
  Li+  Li2  1  0.60300000  0.91666667  0.42330000  1.0
  Li+  Li2  1  0.35300000  0.08333333  0.07670000  1.0
  Li+  Li2  1  0.35300000  0.41666667  0.07670000  1.0
  Li+  Li2  1  0.35300000  0.75000000  0.07670000  1.0
  Li+  Li2  1  0.85300000  0.08333333  0.07670000  1.0
  Li+  Li2  1  0.85300000  0.41666667  0.07670000  1.0
  Li+  Li2  1  0.85300000  0.75000000  0.07670000  1.0
  Li+  Li2  1  0.39700000  0.08333333  0.57670000  1.0
  Li+  Li2  1  0.39700000  0.41666667  0.57670000  1.0
  Li+  Li2  1  0.39700000  0.75000000  0.57670000  1.0
  Li+  Li2  1  0.89700000  0.08333333  0.57670000  1.0
  Li+  Li2  1  0.89700000  0.41666667  0.57670000  1.0
  Li+  Li2  1  0.89700000  0.75000000  0.57670000  1.0
  P5+  P1  1  0.09560000  0.08333333  0.91140000  1.0
  P5+  P1  1  0.09560000  0.41666667  0.91140000  1.0
  P5+  P1  1  0.09560000  0.75000000  0.91140000  1.0
  P5+  P1  1  0.59560000  0.08333333  0.91140000  1.0
  P5+  P1  1  0.59560000  0.41666667  0.91140000  1.0
  P5+  P1  1  0.59560000  0.75000000  0.91140000  1.0
  P5+  P1  1  0.15440000  0.08333333  0.41140000  1.0
  P5+  P1  1  0.15440000  0.41666667  0.41140000  1.0
  P5+  P1  1  0.15440000  0.75000000  0.41140000  1.0
  P5+  P1  1  0.65440000  0.08333333  0.41140000  1.0
  P5+  P1  1  0.65440000  0.41666667  0.41140000  1.0
  P5+  P1  1  0.65440000  0.75000000  0.41140000  1.0
  P5+  P1  1  0.40440000  0.25000000  0.08860000  1.0
  P5+  P1  1  0.40440000  0.58333333  0.08860000  1.0
  P5+  P1  1  0.40440000  0.91666667  0.08860000  1.0
  P5+  P1  1  0.90440000  0.25000000  0.08860000  1.0
  P5+  P1  1  0.90440000  0.58333333  0.08860000  1.0
  P5+  P1  1  0.90440000  0.91666667  0.08860000  1.0
  P5+  P1  1  0.34560000  0.25000000  0.58860000  1.0
  P5+  P1  1  0.34560000  0.58333333  0.58860000  1.0
  P5+  P1  1  0.34560000  0.91666667  0.58860000  1.0
  P5+  P1  1  0.84560000  0.25000000  0.58860000  1.0
  P5+  P1  1  0.84560000  0.58333333  0.58860000  1.0
  P5+  P1  1  0.84560000  0.91666667  0.58860000  1.0
  O2-  O1  1  0.14810000  0.01483333  0.84170000  1.0
  O2-  O1  1  0.14810000  0.34816667  0.84170000  1.0
  O2-  O1  1  0.14810000  0.68150000  0.84170000  1.0
  O2-  O1  1  0.64810000  0.01483333  0.84170000  1.0
  O2-  O1  1  0.64810000  0.34816667  0.84170000  1.0
  O2-  O1  1  0.64810000  0.68150000  0.84170000  1.0
  O2-  O1  1  0.10190000  0.15183333  0.34170000  1.0
  O2-  O1  1  0.10190000  0.48516667  0.34170000  1.0
  O2-  O1  1  0.10190000  0.81850000  0.34170000  1.0
  O2-  O1  1  0.60190000  0.15183333  0.34170000  1.0
  O2-  O1  1  0.60190000  0.48516667  0.34170000  1.0
  O2-  O1  1  0.60190000  0.81850000  0.34170000  1.0
  O2-  O1  1  0.35190000  0.18150000  0.15830000  1.0
  O2-  O1  1  0.35190000  0.51483333  0.15830000  1.0
  O2-  O1  1  0.35190000  0.84816667  0.15830000  1.0
  O2-  O1  1  0.85190000  0.18150000  0.15830000  1.0
  O2-  O1  1  0.85190000  0.51483333  0.15830000  1.0
  O2-  O1  1  0.85190000  0.84816667  0.15830000  1.0
  O2-  O1  1  0.39810000  0.31850000  0.65830000  1.0
  O2-  O1  1  0.39810000  0.65183333  0.65830000  1.0
  O2-  O1  1  0.39810000  0.98516667  0.65830000  1.0
  O2-  O1  1  0.89810000  0.31850000  0.65830000  1.0
  O2-  O1  1  0.89810000  0.65183333  0.65830000  1.0
  O2-  O1  1  0.89810000  0.98516667  0.65830000  1.0
  O2-  O1  1  0.35190000  0.31850000  0.15830000  1.0
  O2-  O1  1  0.35190000  0.65183333  0.15830000  1.0
  O2-  O1  1  0.35190000  0.98516667  0.15830000  1.0
  O2-  O1  1  0.85190000  0.31850000  0.15830000  1.0
  O2-  O1  1  0.85190000  0.65183333  0.15830000  1.0
  O2-  O1  1  0.85190000  0.98516667  0.15830000  1.0
  O2-  O1  1  0.39810000  0.18150000  0.65830000  1.0
  O2-  O1  1  0.39810000  0.51483333  0.65830000  1.0
  O2-  O1  1  0.39810000  0.84816667  0.65830000  1.0
  O2-  O1  1  0.89810000  0.18150000  0.65830000  1.0
  O2-  O1  1  0.89810000  0.51483333  0.65830000  1.0
  O2-  O1  1  0.89810000  0.84816667  0.65830000  1.0
  O2-  O1  1  0.14810000  0.15183333  0.84170000  1.0
  O2-  O1  1  0.14810000  0.48516667  0.84170000  1.0
  O2-  O1  1  0.14810000  0.81850000  0.84170000  1.0
  O2-  O1  1  0.64810000  0.15183333  0.84170000  1.0
  O2-  O1  1  0.64810000  0.48516667  0.84170000  1.0
  O2-  O1  1  0.64810000  0.81850000  0.84170000  1.0
  O2-  O1  1  0.10190000  0.01483333  0.34170000  1.0
  O2-  O1  1  0.10190000  0.34816667  0.34170000  1.0
  O2-  O1  1  0.10190000  0.68150000  0.34170000  1.0
  O2-  O1  1  0.60190000  0.01483333  0.34170000  1.0
  O2-  O1  1  0.60190000  0.34816667  0.34170000  1.0
  O2-  O1  1  0.60190000  0.68150000  0.34170000  1.0
  O2-  O2  1  0.10295000  0.08333333  0.55000000  1.0
  O2-  O2  1  0.10295000  0.41666667  0.55000000  1.0
  O2-  O2  1  0.10295000  0.75000000  0.55000000  1.0
  O2-  O2  1  0.60295000  0.08333333  0.55000000  1.0
  O2-  O2  1  0.60295000  0.41666667  0.55000000  1.0
  O2-  O2  1  0.60295000  0.75000000  0.55000000  1.0
  O2-  O2  1  0.14705000  0.08333333  0.05000000  1.0
  O2-  O2  1  0.14705000  0.41666667  0.05000000  1.0
  O2-  O2  1  0.14705000  0.75000000  0.05000000  1.0
  O2-  O2  1  0.64705000  0.08333333  0.05000000  1.0
  O2-  O2  1  0.64705000  0.41666667  0.05000000  1.0
  O2-  O2  1  0.64705000  0.75000000  0.05000000  1.0
  O2-  O2  1  0.39705000  0.25000000  0.45000000  1.0
  O2-  O2  1  0.39705000  0.58333333  0.45000000  1.0
  O2-  O2  1  0.39705000  0.91666667  0.45000000  1.0
  O2-  O2  1  0.89705000  0.25000000  0.45000000  1.0
  O2-  O2  1  0.89705000  0.58333333  0.45000000  1.0
  O2-  O2  1  0.89705000  0.91666667  0.45000000  1.0
  O2-  O2  1  0.35295000  0.25000000  0.95000000  1.0
  O2-  O2  1  0.35295000  0.58333333  0.95000000  1.0
  O2-  O2  1  0.35295000  0.91666667  0.95000000  1.0
  O2-  O2  1  0.85295000  0.25000000  0.95000000  1.0
  O2-  O2  1  0.85295000  0.58333333  0.95000000  1.0
  O2-  O2  1  0.85295000  0.91666667  0.95000000  1.0
  O2-  O3  1  0.19035000  0.25000000  0.59000000  1.0
  O2-  O3  1  0.19035000  0.58333333  0.59000000  1.0
  O2-  O3  1  0.19035000  0.91666667  0.59000000  1.0
  O2-  O3  1  0.69035000  0.25000000  0.59000000  1.0
  O2-  O3  1  0.69035000  0.58333333  0.59000000  1.0
  O2-  O3  1  0.69035000  0.91666667  0.59000000  1.0
  O2-  O3  1  0.05965000  0.25000000  0.09000000  1.0
  O2-  O3  1  0.05965000  0.58333333  0.09000000  1.0
  O2-  O3  1  0.05965000  0.91666667  0.09000000  1.0
  O2-  O3  1  0.55965000  0.25000000  0.09000000  1.0
  O2-  O3  1  0.55965000  0.58333333  0.09000000  1.0
  O2-  O3  1  0.55965000  0.91666667  0.09000000  1.0
  O2-  O3  1  0.30965000  0.08333333  0.41000000  1.0
  O2-  O3  1  0.30965000  0.41666667  0.41000000  1.0
  O2-  O3  1  0.30965000  0.75000000  0.41000000  1.0
  O2-  O3  1  0.80965000  0.08333333  0.41000000  1.0
  O2-  O3  1  0.80965000  0.41666667  0.41000000  1.0
  O2-  O3  1  0.80965000  0.75000000  0.41000000  1.0
  O2-  O3  1  0.44035000  0.08333333  0.91000000  1.0
  O2-  O3  1  0.44035000  0.41666667  0.91000000  1.0
  O2-  O3  1  0.44035000  0.75000000  0.91000000  1.0
  O2-  O3  1  0.94035000  0.08333333  0.91000000  1.0
  O2-  O3  1  0.94035000  0.41666667  0.91000000  1.0
  O2-  O3  1  0.94035000  0.75000000  0.91000000  1.0
