# generated using pymatgen
data_Li25P4(S7Cl)3
_symmetry_space_group_name_H-M   'P 1'
_cell_length_a   13.96804593
_cell_length_b   13.96804593
_cell_length_c   13.96804593
_cell_angle_alpha   60.00000000
_cell_angle_beta   120.00000000
_cell_angle_gamma   120.00000000
_symmetry_Int_Tables_number   1
_chemical_formula_structural   Li25P4(S7Cl)3
_chemical_formula_sum   'Li50 P8 S42 Cl6'
_cell_volume   1927.04548404
_cell_formula_units_Z   2
loop_
 _symmetry_equiv_pos_site_id
 _symmetry_equiv_pos_as_xyz
  1  'x, y, z'
loop_
 _atom_type_symbol
 _atom_type_oxidation_number
  Li+  1.0
  P5+  5.0
  S2-  -2.0
  Cl-  -1.0
loop_
 _atom_site_type_symbol
 _atom_site_label
 _atom_site_symmetry_multiplicity
 _atom_site_fract_x
 _atom_site_fract_y
 _atom_site_fract_z
 _atom_site_occupancy
  Li+  Li0  1  0.33000000  0.38700000  0.30600000  1.0
  Li+  Li1  1  0.83000000  0.88700000  0.80600000  1.0
  Li+  Li2  1  0.44400000  0.38700000  0.92000000  1.0
  Li+  Li3  1  0.94400000  0.88700000  0.92000000  1.0
  Li+  Li4  1  0.33000000  0.05600000  0.13700000  1.0
  Li+  Li5  1  0.61583629  0.55766626  0.92147442  1.0
  Li+  Li6  1  0.61300000  0.17000000  0.80600000  1.0
  Li+  Li7  1  0.44378177  0.38479867  0.63622655  1.0
  Li+  Li8  1  0.44480931  0.89223846  0.13837758  1.0
  Li+  Li9  1  0.94400000  0.88700000  0.13700000  1.0
  Li+  Li10  1  0.11300000  0.67000000  0.63700000  1.0
  Li+  Li11  1  0.61300000  0.67000000  0.13700000  1.0
  Li+  Li12  1  0.16750000  0.19250000  0.73750000  1.0
  Li+  Li13  1  0.16331287  0.19771196  0.24375177  1.0
  Li+  Li14  1  0.01372220  0.33176018  0.44271845  1.0
  Li+  Li15  1  0.01250000  0.33250000  0.94250000  1.0
  Li+  Li16  1  0.51297410  0.83642093  0.44607998  1.0
  Li+  Li17  1  0.51250000  0.33250000  0.44250000  1.0
  Li+  Li18  1  0.51250000  0.33250000  0.94250000  1.0
  Li+  Li19  1  0.30397329  0.98874497  0.74024750  1.0
  Li+  Li20  1  0.80750000  0.98750000  0.23750000  1.0
  Li+  Li21  1  0.30750000  0.33250000  0.73750000  1.0
  Li+  Li22  1  0.30750000  0.83250000  0.23750000  1.0
  Li+  Li23  1  0.80750000  0.83250000  0.73750000  1.0
  Li+  Li24  1  0.80555139  0.32948464  0.23726831  1.0
  Li+  Li25  1  0.01250000  0.19250000  0.23750000  1.0
  Li+  Li26  1  0.51250000  0.69250000  0.73750000  1.0
  Li+  Li27  1  0.50946929  0.19293836  0.24001877  1.0
  Li+  Li28  1  0.01250000  0.83250000  0.73750000  1.0
  Li+  Li29  1  0.01644006  0.32919887  0.73914844  1.0
  Li+  Li30  1  0.01213994  0.83219890  0.23624293  1.0
  Li+  Li31  1  0.01250000  0.33250000  0.23750000  1.0
  Li+  Li32  1  0.51250000  0.83250000  0.73750000  1.0
  Li+  Li33  1  0.51250000  0.33250000  0.73750000  1.0
  Li+  Li34  1  0.51250000  0.83250000  0.23750000  1.0
  Li+  Li35  1  0.51250000  0.33250000  0.23750000  1.0
  Li+  Li36  1  0.01250000  0.69250000  0.58250000  1.0
  Li+  Li37  1  0.01250000  0.69250000  0.08250000  1.0
  Li+  Li38  1  0.51250000  0.19250000  0.58250000  1.0
  Li+  Li39  1  0.01250000  0.48750000  0.58250000  1.0
  Li+  Li40  1  0.51250000  0.98750000  0.58250000  1.0
  Li+  Li41  1  0.51250000  0.98750000  0.08250000  1.0
  Li+  Li42  1  0.16750000  0.98750000  0.73750000  1.0
  Li+  Li43  1  0.16750000  0.48750000  0.73750000  1.0
  Li+  Li44  1  0.16750000  0.98750000  0.23750000  1.0
  Li+  Li45  1  0.66750000  0.48750000  0.23750000  1.0
  Li+  Li46  1  0.31273506  0.99336877  0.58117044  1.0
  Li+  Li47  1  0.30750000  0.48750000  0.08250000  1.0
  Li+  Li48  1  0.16750000  0.48750000  0.44250000  1.0
  Li+  Li49  1  0.66750000  0.48750000  0.44250000  1.0
  P5+  P50  1  0.25000000  0.75000000  0.50000000  1.0
  P5+  P51  1  0.25000000  0.25000000  0.50000000  1.0
  P5+  P52  1  0.25000000  0.75000000  0.00000000  1.0
  P5+  P53  1  0.25000000  0.25000000  0.00000000  1.0
  P5+  P54  1  0.75000000  0.75000000  0.50000000  1.0
  P5+  P55  1  0.75000000  0.25000000  0.50000000  1.0
  P5+  P56  1  0.75192037  0.75222415  0.99946710  1.0
  P5+  P57  1  0.75000000  0.25000000  0.00000000  1.0
  S2-  S58  1  0.31010000  0.68990000  0.68030000  1.0
  S2-  S59  1  0.31010000  0.18990000  0.68030000  1.0
  S2-  S60  1  0.31010000  0.68990000  0.18030000  1.0
  S2-  S61  1  0.30897798  0.18806242  0.18047183  1.0
  S2-  S62  1  0.81010000  0.68990000  0.68030000  1.0
  S2-  S63  1  0.81010000  0.18990000  0.68030000  1.0
  S2-  S64  1  0.81010000  0.68990000  0.18030000  1.0
  S2-  S65  1  0.81036253  0.19035239  0.17792747  1.0
  S2-  S66  1  0.31010000  0.68990000  0.43990000  1.0
  S2-  S67  1  0.31010000  0.18990000  0.43990000  1.0
  S2-  S68  1  0.31010000  0.68990000  0.93990000  1.0
  S2-  S69  1  0.31137266  0.18983901  0.93715592  1.0
  S2-  S70  1  0.81010000  0.68990000  0.43990000  1.0
  S2-  S71  1  0.81010000  0.18990000  0.43990000  1.0
  S2-  S72  1  0.80957284  0.69033124  0.94025073  1.0
  S2-  S73  1  0.81006477  0.18624699  0.94288534  1.0
  S2-  S74  1  0.31268394  0.92938007  0.43970417  1.0
  S2-  S75  1  0.30685632  0.42979082  0.44213784  1.0
  S2-  S76  1  0.31010000  0.93030000  0.93990000  1.0
  S2-  S77  1  0.31010000  0.43030000  0.93990000  1.0
  S2-  S78  1  0.80249964  0.92849346  0.44492873  1.0
  S2-  S79  1  0.81010000  0.43030000  0.43990000  1.0
  S2-  S80  1  0.81010000  0.93030000  0.93990000  1.0
  S2-  S81  1  0.81010000  0.43030000  0.93990000  1.0
  S2-  S82  1  0.06970000  0.68990000  0.43990000  1.0
  S2-  S83  1  0.06664564  0.19252145  0.44355404  1.0
  S2-  S84  1  0.06970000  0.68990000  0.93990000  1.0
  S2-  S85  1  0.06970000  0.18990000  0.93990000  1.0
  S2-  S86  1  0.56970000  0.68990000  0.43990000  1.0
  S2-  S87  1  0.56970000  0.18990000  0.43990000  1.0
  S2-  S88  1  0.56907311  0.68714179  0.94074947  1.0
  S2-  S89  1  0.56970000  0.18990000  0.93990000  1.0
  S2-  S90  1  0.12500000  0.87500000  0.62500000  1.0
  S2-  S91  1  0.12500000  0.37500000  0.62500000  1.0
  S2-  S92  1  0.62500000  0.87500000  0.62500000  1.0
  S2-  S93  1  0.62500000  0.37500000  0.62500000  1.0
  S2-  S94  1  0.99439899  0.50096841  0.74901824  1.0
  S2-  S95  1  0.00000000  0.00000000  0.25000000  1.0
  S2-  S96  1  0.50229814  0.99731882  0.74820659  1.0
  S2-  S97  1  0.50000000  0.50000000  0.75000000  1.0
  S2-  S98  1  0.50000000  0.00000000  0.25000000  1.0
  S2-  S99  1  0.50164485  0.50188426  0.24569047  1.0
  Cl-  Cl100  1  0.12500000  0.87500000  0.12500000  1.0
  Cl-  Cl101  1  0.12500000  0.37500000  0.12500000  1.0
  Cl-  Cl102  1  0.62500000  0.87500000  0.12500000  1.0
  Cl-  Cl103  1  0.62500000  0.37500000  0.12500000  1.0
  Cl-  Cl104  1  0.00000000  0.00000000  0.75000000  1.0
  Cl-  Cl105  1  0.00000000  0.50000000  0.25000000  1.0
