# generated using pymatgen
data_Li4SnS4
_symmetry_space_group_name_H-M   'P 1'
_cell_length_a   12.65600000
_cell_length_b   14.30500000
_cell_length_c   15.79800000
_cell_angle_alpha   90.00000000
_cell_angle_beta   90.00000000
_cell_angle_gamma   90.00000000
_symmetry_Int_Tables_number   1
_chemical_formula_structural   Li4SnS4
_chemical_formula_sum   'Li64 Sn16 S64'
_cell_volume   2860.13437584
_cell_formula_units_Z   16
loop_
 _symmetry_equiv_pos_site_id
 _symmetry_equiv_pos_as_xyz
  1  'x, y, z'
loop_
 _atom_type_symbol
 _atom_type_oxidation_number
  Li+  1.0
  Sn4+  4.0
  S2-  -2.0
loop_
 _atom_site_type_symbol
 _atom_site_label
 _atom_site_symmetry_multiplicity
 _atom_site_fract_x
 _atom_site_fract_y
 _atom_site_fract_z
 _atom_site_occupancy
  Li+  Li0  1  0.25000000  0.50000000  0.75000000  1.0
  Li+  Li1  1  0.25000000  0.50000000  0.25000000  1.0
  Li+  Li2  1  0.75000000  0.50000000  0.75000000  1.0
  Li+  Li3  1  0.75000000  0.50000000  0.25000000  1.0
  Li+  Li4  1  0.50000000  0.00000000  0.50000000  1.0
  Li+  Li5  1  0.50000000  0.00000000  0.00000000  1.0
  Li+  Li6  1  0.00000000  0.00000000  0.50000000  1.0
  Li+  Li7  1  0.00000000  0.00000000  0.00000000  1.0
  Li+  Li8  1  0.25000000  0.50000000  0.50000000  1.0
  Li+  Li9  1  0.25393653  0.50038079  0.99725923  1.0
  Li+  Li10  1  0.75000000  0.50000000  0.50000000  1.0
  Li+  Li11  1  0.75000000  0.50000000  0.00000000  1.0
  Li+  Li12  1  0.00000000  0.00000000  0.75000000  1.0
  Li+  Li13  1  0.00000000  0.00000000  0.25000000  1.0
  Li+  Li14  1  0.50000000  0.00000000  0.75000000  1.0
  Li+  Li15  1  0.50000000  0.00000000  0.25000000  1.0
  Li+  Li16  1  0.31285000  0.90850000  0.37500000  1.0
  Li+  Li17  1  0.31285000  0.90850000  0.87500000  1.0
  Li+  Li18  1  0.81473500  0.90644910  0.37267311  1.0
  Li+  Li19  1  0.81426366  0.90952761  0.87477626  1.0
  Li+  Li20  1  0.43715000  0.40850000  0.37500000  1.0
  Li+  Li21  1  0.43715000  0.40850000  0.87500000  1.0
  Li+  Li22  1  0.93367912  0.40457762  0.37368282  1.0
  Li+  Li23  1  0.93715000  0.40850000  0.87500000  1.0
  Li+  Li24  1  0.18715000  0.09150000  0.62500000  1.0
  Li+  Li25  1  0.18715000  0.09150000  0.12500000  1.0
  Li+  Li26  1  0.68715000  0.09150000  0.62500000  1.0
  Li+  Li27  1  0.68715000  0.09150000  0.12500000  1.0
  Li+  Li28  1  0.06285000  0.59150000  0.62500000  1.0
  Li+  Li29  1  0.06456895  0.59038326  0.12349891  1.0
  Li+  Li30  1  0.56356161  0.58938116  0.62651575  1.0
  Li+  Li31  1  0.56285000  0.59150000  0.12500000  1.0
  Li+  Li32  1  0.33925000  0.67770000  0.25175000  1.0
  Li+  Li33  1  0.33925000  0.67770000  0.75175000  1.0
  Li+  Li34  1  0.83925000  0.67770000  0.25175000  1.0
  Li+  Li35  1  0.83925000  0.67770000  0.75175000  1.0
  Li+  Li36  1  0.41075000  0.17770000  0.49825000  1.0
  Li+  Li37  1  0.41075000  0.17770000  0.99825000  1.0
  Li+  Li38  1  0.91075000  0.17770000  0.49825000  1.0
  Li+  Li39  1  0.90751019  0.17667422  0.99698729  1.0
  Li+  Li40  1  0.16075000  0.32230000  0.50175000  1.0
  Li+  Li41  1  0.15859128  0.32264933  0.00186935  1.0
  Li+  Li42  1  0.66075000  0.32230000  0.50175000  1.0
  Li+  Li43  1  0.66075000  0.32230000  0.00175000  1.0
  Li+  Li44  1  0.08925000  0.82230000  0.74825000  1.0
  Li+  Li45  1  0.08925000  0.82230000  0.24825000  1.0
  Li+  Li46  1  0.58925000  0.82230000  0.74825000  1.0
  Li+  Li47  1  0.59068180  0.82536637  0.24503935  1.0
  Li+  Li48  1  0.16075000  0.32230000  0.74825000  1.0
  Li+  Li49  1  0.16075000  0.32230000  0.24825000  1.0
  Li+  Li50  1  0.66075000  0.32230000  0.74825000  1.0
  Li+  Li51  1  0.65871078  0.32146241  0.25075309  1.0
  Li+  Li52  1  0.08787947  0.82117808  0.50018983  1.0
  Li+  Li53  1  0.08925000  0.82230000  0.00175000  1.0
  Li+  Li54  1  0.58925000  0.82230000  0.50175000  1.0
  Li+  Li55  1  0.58728883  0.82343621  0.00498787  1.0
  Li+  Li56  1  0.34628787  0.67484861  0.49688456  1.0
  Li+  Li57  1  0.33925000  0.67770000  0.99825000  1.0
  Li+  Li58  1  0.83925000  0.67770000  0.49825000  1.0
  Li+  Li59  1  0.83925000  0.67770000  0.99825000  1.0
  Li+  Li60  1  0.41075000  0.17770000  0.25175000  1.0
  Li+  Li61  1  0.41075000  0.17770000  0.75175000  1.0
  Li+  Li62  1  0.91075000  0.17770000  0.25175000  1.0
  Li+  Li63  1  0.91075000  0.17770000  0.75175000  1.0
  Sn4+  Sn64  1  0.07100000  0.59150000  0.37500000  1.0
  Sn4+  Sn65  1  0.06820864  0.59048127  0.87205326  1.0
  Sn4+  Sn66  1  0.57100000  0.59150000  0.37500000  1.0
  Sn4+  Sn67  1  0.57439743  0.59307534  0.87678597  1.0
  Sn4+  Sn68  1  0.17719496  0.08870057  0.37332608  1.0
  Sn4+  Sn69  1  0.17797064  0.09175062  0.87731058  1.0
  Sn4+  Sn70  1  0.67900000  0.09150000  0.37500000  1.0
  Sn4+  Sn71  1  0.67900000  0.09150000  0.87500000  1.0
  Sn4+  Sn72  1  0.43112167  0.40773601  0.62657832  1.0
  Sn4+  Sn73  1  0.42900000  0.40850000  0.12500000  1.0
  Sn4+  Sn74  1  0.92900000  0.40850000  0.62500000  1.0
  Sn4+  Sn75  1  0.92900000  0.40850000  0.12500000  1.0
  Sn4+  Sn76  1  0.32100000  0.90850000  0.62500000  1.0
  Sn4+  Sn77  1  0.31964782  0.90943393  0.12415126  1.0
  Sn4+  Sn78  1  0.82100000  0.90850000  0.62500000  1.0
  Sn4+  Sn79  1  0.82100000  0.90850000  0.12500000  1.0
  S2-  S80  1  0.38355000  0.58300000  0.37500000  1.0
  S2-  S81  1  0.38355000  0.58300000  0.87500000  1.0
  S2-  S82  1  0.88355000  0.58300000  0.37500000  1.0
  S2-  S83  1  0.88355000  0.58300000  0.87500000  1.0
  S2-  S84  1  0.36368853  0.07956843  0.37756572  1.0
  S2-  S85  1  0.36645000  0.08300000  0.87500000  1.0
  S2-  S86  1  0.86645000  0.08300000  0.37500000  1.0
  S2-  S87  1  0.85996372  0.08308590  0.87488281  1.0
  S2-  S88  1  0.11645000  0.41700000  0.62500000  1.0
  S2-  S89  1  0.11645000  0.41700000  0.12500000  1.0
  S2-  S90  1  0.61799592  0.41800561  0.62359370  1.0
  S2-  S91  1  0.61645000  0.41700000  0.12500000  1.0
  S2-  S92  1  0.13355000  0.91700000  0.62500000  1.0
  S2-  S93  1  0.13274364  0.91515926  0.12437031  1.0
  S2-  S94  1  0.63355000  0.91700000  0.62500000  1.0
  S2-  S95  1  0.63355000  0.91700000  0.12500000  1.0
  S2-  S96  1  0.14175000  0.66080000  0.25065000  1.0
  S2-  S97  1  0.14308061  0.66014762  0.75088701  1.0
  S2-  S98  1  0.64175000  0.66080000  0.25065000  1.0
  S2-  S99  1  0.64175000  0.66080000  0.75065000  1.0
  S2-  S100  1  0.10825000  0.16080000  0.49935000  1.0
  S2-  S101  1  0.10825000  0.16080000  0.99935000  1.0
  S2-  S102  1  0.60744692  0.16083199  0.49710410  1.0
  S2-  S103  1  0.60730684  0.16171657  0.99991082  1.0
  S2-  S104  1  0.35825000  0.33920000  0.50065000  1.0
  S2-  S105  1  0.35825000  0.33920000  0.00065000  1.0
  S2-  S106  1  0.85825000  0.33920000  0.50065000  1.0
  S2-  S107  1  0.85825000  0.33920000  0.00065000  1.0
  S2-  S108  1  0.39175000  0.83920000  0.74935000  1.0
  S2-  S109  1  0.39175000  0.83920000  0.24935000  1.0
  S2-  S110  1  0.89175000  0.83920000  0.74935000  1.0
  S2-  S111  1  0.89175000  0.83920000  0.24935000  1.0
  S2-  S112  1  0.35825000  0.33920000  0.74935000  1.0
  S2-  S113  1  0.35972734  0.33578909  0.24615888  1.0
  S2-  S114  1  0.85825000  0.33920000  0.74935000  1.0
  S2-  S115  1  0.85825000  0.33920000  0.24935000  1.0
  S2-  S116  1  0.39175000  0.83920000  0.50065000  1.0
  S2-  S117  1  0.39175000  0.83920000  0.00065000  1.0
  S2-  S118  1  0.89175000  0.83920000  0.50065000  1.0
  S2-  S119  1  0.89175000  0.83920000  0.00065000  1.0
  S2-  S120  1  0.14175000  0.66080000  0.49935000  1.0
  S2-  S121  1  0.14499606  0.66073398  0.00270578  1.0
  S2-  S122  1  0.64084844  0.66052467  0.50463591  1.0
  S2-  S123  1  0.63976989  0.66308790  0.99641881  1.0
  S2-  S124  1  0.10825000  0.16080000  0.25065000  1.0
  S2-  S125  1  0.10825000  0.16080000  0.75065000  1.0
  S2-  S126  1  0.60825000  0.16080000  0.25065000  1.0
  S2-  S127  1  0.60691916  0.16463908  0.74802701  1.0
  S2-  S128  1  0.13295000  0.93230000  0.37500000  1.0
  S2-  S129  1  0.12970577  0.93309052  0.87701968  1.0
  S2-  S130  1  0.63295000  0.93230000  0.37500000  1.0
  S2-  S131  1  0.63333498  0.93033726  0.87328652  1.0
  S2-  S132  1  0.11705000  0.43230000  0.37500000  1.0
  S2-  S133  1  0.12378549  0.42664809  0.87336518  1.0
  S2-  S134  1  0.61630844  0.43282757  0.37427391  1.0
  S2-  S135  1  0.61705000  0.43230000  0.87500000  1.0
  S2-  S136  1  0.36705000  0.06770000  0.62500000  1.0
  S2-  S137  1  0.36705000  0.06770000  0.12500000  1.0
  S2-  S138  1  0.86532518  0.06478636  0.62473277  1.0
  S2-  S139  1  0.86705000  0.06770000  0.12500000  1.0
  S2-  S140  1  0.38295000  0.56770000  0.62500000  1.0
  S2-  S141  1  0.38295000  0.56770000  0.12500000  1.0
  S2-  S142  1  0.88295000  0.56770000  0.62500000  1.0
  S2-  S143  1  0.88295000  0.56770000  0.12500000  1.0
