# generated using pymatgen
data_Li4SnS4
_symmetry_space_group_name_H-M   'P 1'
_cell_length_a   15.66646098
_cell_length_b   12.55062224
_cell_length_c   14.18589215
_cell_angle_alpha   90.00000000
_cell_angle_beta   90.00000000
_cell_angle_gamma   90.00000000
_symmetry_Int_Tables_number   1
_chemical_formula_structural   Li4SnS4
_chemical_formula_sum   'Li64 Sn16 S64'
_cell_volume   2789.28449754
_cell_formula_units_Z   16
loop_
 _symmetry_equiv_pos_site_id
 _symmetry_equiv_pos_as_xyz
  1  'x, y, z'
loop_
 _atom_type_symbol
 _atom_type_oxidation_number
  Li+  1.0
  Sn4+  4.0
  S2-  -2.0
loop_
 _atom_site_type_symbol
 _atom_site_label
 _atom_site_symmetry_multiplicity
 _atom_site_fract_x
 _atom_site_fract_y
 _atom_site_fract_z
 _atom_site_occupancy
  Li+  Li0  1  0.00000000  0.41666667  0.50000000  1.0
  Li+  Li1  1  0.50000000  0.41666667  0.50000000  1.0
  Li+  Li2  1  0.00000000  0.91666667  0.50000000  1.0
  Li+  Li3  1  0.50000000  0.91666667  0.50000000  1.0
  Li+  Li4  1  0.75000000  0.16666667  0.00000000  1.0
  Li+  Li5  1  0.25000000  0.16666667  0.00000000  1.0
  Li+  Li6  1  0.75000000  0.66666667  0.00000000  1.0
  Li+  Li7  1  0.25000000  0.66666667  0.00000000  1.0
  Li+  Li8  1  0.75000000  0.41666667  0.50000000  1.0
  Li+  Li9  1  0.25000000  0.41666667  0.50000000  1.0
  Li+  Li10  1  0.75000000  0.91666667  0.50000000  1.0
  Li+  Li11  1  0.25000000  0.91666667  0.50000000  1.0
  Li+  Li12  1  0.00000000  0.66666667  0.00000000  1.0
  Li+  Li13  1  0.50000000  0.66666667  0.00000000  1.0
  Li+  Li14  1  0.00000000  0.16666667  0.00000000  1.0
  Li+  Li15  1  0.50000000  0.16666667  0.00000000  1.0
  Li+  Li16  1  0.62500000  0.35381667  0.09150000  1.0
  Li+  Li17  1  0.12500000  0.35381667  0.09150000  1.0
  Li+  Li18  1  0.62500000  0.85381667  0.09150000  1.0
  Li+  Li19  1  0.12500000  0.85381667  0.09150000  1.0
  Li+  Li20  1  0.62500000  0.22951667  0.59150000  1.0
  Li+  Li21  1  0.12500000  0.22951667  0.59150000  1.0
  Li+  Li22  1  0.62500000  0.72951667  0.59150000  1.0
  Li+  Li23  1  0.12500000  0.72951667  0.59150000  1.0
  Li+  Li24  1  0.87500000  0.47951667  0.90850000  1.0
  Li+  Li25  1  0.37500000  0.47951667  0.90850000  1.0
  Li+  Li26  1  0.87500000  0.97951667  0.90850000  1.0
  Li+  Li27  1  0.37500000  0.97951667  0.90850000  1.0
  Li+  Li28  1  0.87500000  0.60381667  0.40850000  1.0
  Li+  Li29  1  0.37500000  0.60381667  0.40850000  1.0
  Li+  Li30  1  0.87500000  0.10381667  0.40850000  1.0
  Li+  Li31  1  0.37500000  0.10381667  0.40850000  1.0
  Li+  Li32  1  0.50175000  0.32741667  0.32230000  1.0
  Li+  Li33  1  0.00175000  0.32741667  0.32230000  1.0
  Li+  Li34  1  0.50175000  0.82741667  0.32230000  1.0
  Li+  Li35  1  0.00175000  0.82741667  0.32230000  1.0
  Li+  Li36  1  0.74825000  0.25591667  0.82230000  1.0
  Li+  Li37  1  0.24825000  0.25591667  0.82230000  1.0
  Li+  Li38  1  0.74825000  0.75591667  0.82230000  1.0
  Li+  Li39  1  0.24825000  0.75591667  0.82230000  1.0
  Li+  Li40  1  0.75175000  0.50591667  0.67770000  1.0
  Li+  Li41  1  0.25175000  0.50591667  0.67770000  1.0
  Li+  Li42  1  0.75175000  0.00591667  0.67770000  1.0
  Li+  Li43  1  0.25175000  0.00591667  0.67770000  1.0
  Li+  Li44  1  0.99825000  0.57741667  0.17770000  1.0
  Li+  Li45  1  0.49825000  0.57741667  0.17770000  1.0
  Li+  Li46  1  0.99825000  0.07741667  0.17770000  1.0
  Li+  Li47  1  0.49825000  0.07741667  0.17770000  1.0
  Li+  Li48  1  0.99825000  0.50591667  0.67770000  1.0
  Li+  Li49  1  0.49825000  0.50591667  0.67770000  1.0
  Li+  Li50  1  0.99825000  0.00591667  0.67770000  1.0
  Li+  Li51  1  0.49825000  0.00591667  0.67770000  1.0
  Li+  Li52  1  0.75175000  0.57741667  0.17770000  1.0
  Li+  Li53  1  0.25175000  0.57741667  0.17770000  1.0
  Li+  Li54  1  0.75175000  0.07741667  0.17770000  1.0
  Li+  Li55  1  0.25175000  0.07741667  0.17770000  1.0
  Li+  Li56  1  0.74825000  0.32741667  0.32230000  1.0
  Li+  Li57  1  0.24825000  0.32741667  0.32230000  1.0
  Li+  Li58  1  0.74825000  0.82741667  0.32230000  1.0
  Li+  Li59  1  0.24825000  0.82741667  0.32230000  1.0
  Li+  Li60  1  0.50175000  0.25591667  0.82230000  1.0
  Li+  Li61  1  0.00175000  0.25591667  0.82230000  1.0
  Li+  Li62  1  0.50175000  0.75591667  0.82230000  1.0
  Li+  Li63  1  0.00175000  0.75591667  0.82230000  1.0
  Sn4+  Sn64  1  0.62500000  0.59566667  0.40850000  1.0
  Sn4+  Sn65  1  0.12500000  0.59566667  0.40850000  1.0
  Sn4+  Sn66  1  0.62500000  0.09566667  0.40850000  1.0
  Sn4+  Sn67  1  0.12500000  0.09566667  0.40850000  1.0
  Sn4+  Sn68  1  0.62500000  0.48766667  0.90850000  1.0
  Sn4+  Sn69  1  0.12500000  0.48766667  0.90850000  1.0
  Sn4+  Sn70  1  0.62500000  0.98766667  0.90850000  1.0
  Sn4+  Sn71  1  0.12500000  0.98766667  0.90850000  1.0
  Sn4+  Sn72  1  0.87500000  0.23766667  0.59150000  1.0
  Sn4+  Sn73  1  0.37500000  0.23766667  0.59150000  1.0
  Sn4+  Sn74  1  0.87500000  0.73766667  0.59150000  1.0
  Sn4+  Sn75  1  0.37500000  0.73766667  0.59150000  1.0
  Sn4+  Sn76  1  0.87500000  0.34566667  0.09150000  1.0
  Sn4+  Sn77  1  0.37500000  0.34566667  0.09150000  1.0
  Sn4+  Sn78  1  0.87500000  0.84566667  0.09150000  1.0
  Sn4+  Sn79  1  0.37500000  0.84566667  0.09150000  1.0
  S2-  S80  1  0.62500000  0.28311667  0.41700000  1.0
  S2-  S81  1  0.12500000  0.28311667  0.41700000  1.0
  S2-  S82  1  0.62500000  0.78311667  0.41700000  1.0
  S2-  S83  1  0.12500000  0.78311667  0.41700000  1.0
  S2-  S84  1  0.62500000  0.30021667  0.91700000  1.0
  S2-  S85  1  0.12500000  0.30021667  0.91700000  1.0
  S2-  S86  1  0.62500000  0.80021667  0.91700000  1.0
  S2-  S87  1  0.12500000  0.80021667  0.91700000  1.0
  S2-  S88  1  0.87500000  0.55021667  0.58300000  1.0
  S2-  S89  1  0.37500000  0.55021667  0.58300000  1.0
  S2-  S90  1  0.87500000  0.05021667  0.58300000  1.0
  S2-  S91  1  0.37500000  0.05021667  0.58300000  1.0
  S2-  S92  1  0.87500000  0.53311667  0.08300000  1.0
  S2-  S93  1  0.37500000  0.53311667  0.08300000  1.0
  S2-  S94  1  0.87500000  0.03311667  0.08300000  1.0
  S2-  S95  1  0.37500000  0.03311667  0.08300000  1.0
  S2-  S96  1  0.50065000  0.52491667  0.33920000  1.0
  S2-  S97  1  0.00065000  0.52491667  0.33920000  1.0
  S2-  S98  1  0.50065000  0.02491667  0.33920000  1.0
  S2-  S99  1  0.00065000  0.02491667  0.33920000  1.0
  S2-  S100  1  0.74935000  0.55841667  0.83920000  1.0
  S2-  S101  1  0.24935000  0.55841667  0.83920000  1.0
  S2-  S102  1  0.74935000  0.05841667  0.83920000  1.0
  S2-  S103  1  0.24935000  0.05841667  0.83920000  1.0
  S2-  S104  1  0.75065000  0.30841667  0.66080000  1.0
  S2-  S105  1  0.25065000  0.30841667  0.66080000  1.0
  S2-  S106  1  0.75065000  0.80841667  0.66080000  1.0
  S2-  S107  1  0.25065000  0.80841667  0.66080000  1.0
  S2-  S108  1  0.99935000  0.27491667  0.16080000  1.0
  S2-  S109  1  0.49935000  0.27491667  0.16080000  1.0
  S2-  S110  1  0.99935000  0.77491667  0.16080000  1.0
  S2-  S111  1  0.49935000  0.77491667  0.16080000  1.0
  S2-  S112  1  0.99935000  0.30841667  0.66080000  1.0
  S2-  S113  1  0.49935000  0.30841667  0.66080000  1.0
  S2-  S114  1  0.99935000  0.80841667  0.66080000  1.0
  S2-  S115  1  0.49935000  0.80841667  0.66080000  1.0
  S2-  S116  1  0.75065000  0.27491667  0.16080000  1.0
  S2-  S117  1  0.25065000  0.27491667  0.16080000  1.0
  S2-  S118  1  0.75065000  0.77491667  0.16080000  1.0
  S2-  S119  1  0.25065000  0.77491667  0.16080000  1.0
  S2-  S120  1  0.74935000  0.52491667  0.33920000  1.0
  S2-  S121  1  0.24935000  0.52491667  0.33920000  1.0
  S2-  S122  1  0.74935000  0.02491667  0.33920000  1.0
  S2-  S123  1  0.24935000  0.02491667  0.33920000  1.0
  S2-  S124  1  0.50065000  0.55841667  0.83920000  1.0
  S2-  S125  1  0.00065000  0.55841667  0.83920000  1.0
  S2-  S126  1  0.50065000  0.05841667  0.83920000  1.0
  S2-  S127  1  0.00065000  0.05841667  0.83920000  1.0
  S2-  S128  1  0.62500000  0.53371667  0.06770000  1.0
  S2-  S129  1  0.12500000  0.53371667  0.06770000  1.0
  S2-  S130  1  0.62500000  0.03371667  0.06770000  1.0
  S2-  S131  1  0.12500000  0.03371667  0.06770000  1.0
  S2-  S132  1  0.62500000  0.54961667  0.56770000  1.0
  S2-  S133  1  0.12500000  0.54961667  0.56770000  1.0
  S2-  S134  1  0.62500000  0.04961667  0.56770000  1.0
  S2-  S135  1  0.12500000  0.04961667  0.56770000  1.0
  S2-  S136  1  0.87500000  0.29961667  0.93230000  1.0
  S2-  S137  1  0.37500000  0.29961667  0.93230000  1.0
  S2-  S138  1  0.87500000  0.79961667  0.93230000  1.0
  S2-  S139  1  0.37500000  0.79961667  0.93230000  1.0
  S2-  S140  1  0.87500000  0.28371667  0.43230000  1.0
  S2-  S141  1  0.37500000  0.28371667  0.43230000  1.0
  S2-  S142  1  0.87500000  0.78371667  0.43230000  1.0
  S2-  S143  1  0.37500000  0.78371667  0.43230000  1.0
