# generated using pymatgen
data_Li4SnS4
_symmetry_space_group_name_H-M   'P 1'
_cell_length_a   12.65600000
_cell_length_b   15.79800000
_cell_length_c   14.30500000
_cell_angle_alpha   90.00000000
_cell_angle_beta   90.00000000
_cell_angle_gamma   90.00000000
_symmetry_Int_Tables_number   1
_chemical_formula_structural   Li4SnS4
_chemical_formula_sum   'Li64 Sn16 S64'
_cell_volume   2860.13437584
_cell_formula_units_Z   16
loop_
 _symmetry_equiv_pos_site_id
 _symmetry_equiv_pos_as_xyz
  1  'x, y, z'
loop_
 _atom_type_symbol
 _atom_type_oxidation_number
  Li+  1.0
  Sn4+  4.0
  S2-  -2.0
loop_
 _atom_site_type_symbol
 _atom_site_label
 _atom_site_symmetry_multiplicity
 _atom_site_fract_x
 _atom_site_fract_y
 _atom_site_fract_z
 _atom_site_occupancy
  Li+  Li1  1  0.25000000  0.00000000  0.50000000  1.0
  Li+  Li1  1  0.25000000  0.50000000  0.50000000  1.0
  Li+  Li1  1  0.75000000  0.00000000  0.50000000  1.0
  Li+  Li1  1  0.75000000  0.50000000  0.50000000  1.0
  Li+  Li1  1  0.50000000  0.25000000  0.00000000  1.0
  Li+  Li1  1  0.50000000  0.75000000  0.00000000  1.0
  Li+  Li1  1  0.00000000  0.25000000  0.00000000  1.0
  Li+  Li1  1  0.00000000  0.75000000  0.00000000  1.0
  Li+  Li1  1  0.25000000  0.25000000  0.50000000  1.0
  Li+  Li1  1  0.25000000  0.75000000  0.50000000  1.0
  Li+  Li1  1  0.75000000  0.25000000  0.50000000  1.0
  Li+  Li1  1  0.75000000  0.75000000  0.50000000  1.0
  Li+  Li1  1  0.00000000  0.00000000  0.00000000  1.0
  Li+  Li1  1  0.00000000  0.50000000  0.00000000  1.0
  Li+  Li1  1  0.50000000  0.00000000  0.00000000  1.0
  Li+  Li1  1  0.50000000  0.50000000  0.00000000  1.0
  Li+  Li2  1  0.31285000  0.37500000  0.09150000  1.0
  Li+  Li2  1  0.31285000  0.87500000  0.09150000  1.0
  Li+  Li2  1  0.81285000  0.37500000  0.09150000  1.0
  Li+  Li2  1  0.81285000  0.87500000  0.09150000  1.0
  Li+  Li2  1  0.43715000  0.37500000  0.59150000  1.0
  Li+  Li2  1  0.43715000  0.87500000  0.59150000  1.0
  Li+  Li2  1  0.93715000  0.37500000  0.59150000  1.0
  Li+  Li2  1  0.93715000  0.87500000  0.59150000  1.0
  Li+  Li2  1  0.18715000  0.12500000  0.90850000  1.0
  Li+  Li2  1  0.18715000  0.62500000  0.90850000  1.0
  Li+  Li2  1  0.68715000  0.12500000  0.90850000  1.0
  Li+  Li2  1  0.68715000  0.62500000  0.90850000  1.0
  Li+  Li2  1  0.06285000  0.12500000  0.40850000  1.0
  Li+  Li2  1  0.06285000  0.62500000  0.40850000  1.0
  Li+  Li2  1  0.56285000  0.12500000  0.40850000  1.0
  Li+  Li2  1  0.56285000  0.62500000  0.40850000  1.0
  Li+  Li3  1  0.33925000  0.49825000  0.32230000  1.0
  Li+  Li3  1  0.33925000  0.99825000  0.32230000  1.0
  Li+  Li3  1  0.83925000  0.49825000  0.32230000  1.0
  Li+  Li3  1  0.83925000  0.99825000  0.32230000  1.0
  Li+  Li3  1  0.41075000  0.25175000  0.82230000  1.0
  Li+  Li3  1  0.41075000  0.75175000  0.82230000  1.0
  Li+  Li3  1  0.91075000  0.25175000  0.82230000  1.0
  Li+  Li3  1  0.91075000  0.75175000  0.82230000  1.0
  Li+  Li3  1  0.16075000  0.24825000  0.67770000  1.0
  Li+  Li3  1  0.16075000  0.74825000  0.67770000  1.0
  Li+  Li3  1  0.66075000  0.24825000  0.67770000  1.0
  Li+  Li3  1  0.66075000  0.74825000  0.67770000  1.0
  Li+  Li3  1  0.08925000  0.00175000  0.17770000  1.0
  Li+  Li3  1  0.08925000  0.50175000  0.17770000  1.0
  Li+  Li3  1  0.58925000  0.00175000  0.17770000  1.0
  Li+  Li3  1  0.58925000  0.50175000  0.17770000  1.0
  Li+  Li3  1  0.16075000  0.00175000  0.67770000  1.0
  Li+  Li3  1  0.16075000  0.50175000  0.67770000  1.0
  Li+  Li3  1  0.66075000  0.00175000  0.67770000  1.0
  Li+  Li3  1  0.66075000  0.50175000  0.67770000  1.0
  Li+  Li3  1  0.08925000  0.24825000  0.17770000  1.0
  Li+  Li3  1  0.08925000  0.74825000  0.17770000  1.0
  Li+  Li3  1  0.58925000  0.24825000  0.17770000  1.0
  Li+  Li3  1  0.58925000  0.74825000  0.17770000  1.0
  Li+  Li3  1  0.33925000  0.25175000  0.32230000  1.0
  Li+  Li3  1  0.33925000  0.75175000  0.32230000  1.0
  Li+  Li3  1  0.83925000  0.25175000  0.32230000  1.0
  Li+  Li3  1  0.83925000  0.75175000  0.32230000  1.0
  Li+  Li3  1  0.41075000  0.49825000  0.82230000  1.0
  Li+  Li3  1  0.41075000  0.99825000  0.82230000  1.0
  Li+  Li3  1  0.91075000  0.49825000  0.82230000  1.0
  Li+  Li3  1  0.91075000  0.99825000  0.82230000  1.0
  Sn4+  Sn1  1  0.07100000  0.37500000  0.40850000  1.0
  Sn4+  Sn1  1  0.07100000  0.87500000  0.40850000  1.0
  Sn4+  Sn1  1  0.57100000  0.37500000  0.40850000  1.0
  Sn4+  Sn1  1  0.57100000  0.87500000  0.40850000  1.0
  Sn4+  Sn1  1  0.17900000  0.37500000  0.90850000  1.0
  Sn4+  Sn1  1  0.17900000  0.87500000  0.90850000  1.0
  Sn4+  Sn1  1  0.67900000  0.37500000  0.90850000  1.0
  Sn4+  Sn1  1  0.67900000  0.87500000  0.90850000  1.0
  Sn4+  Sn1  1  0.42900000  0.12500000  0.59150000  1.0
  Sn4+  Sn1  1  0.42900000  0.62500000  0.59150000  1.0
  Sn4+  Sn1  1  0.92900000  0.12500000  0.59150000  1.0
  Sn4+  Sn1  1  0.92900000  0.62500000  0.59150000  1.0
  Sn4+  Sn1  1  0.32100000  0.12500000  0.09150000  1.0
  Sn4+  Sn1  1  0.32100000  0.62500000  0.09150000  1.0
  Sn4+  Sn1  1  0.82100000  0.12500000  0.09150000  1.0
  Sn4+  Sn1  1  0.82100000  0.62500000  0.09150000  1.0
  S2-  S1  1  0.38355000  0.37500000  0.41700000  1.0
  S2-  S1  1  0.38355000  0.87500000  0.41700000  1.0
  S2-  S1  1  0.88355000  0.37500000  0.41700000  1.0
  S2-  S1  1  0.88355000  0.87500000  0.41700000  1.0
  S2-  S1  1  0.36645000  0.37500000  0.91700000  1.0
  S2-  S1  1  0.36645000  0.87500000  0.91700000  1.0
  S2-  S1  1  0.86645000  0.37500000  0.91700000  1.0
  S2-  S1  1  0.86645000  0.87500000  0.91700000  1.0
  S2-  S1  1  0.11645000  0.12500000  0.58300000  1.0
  S2-  S1  1  0.11645000  0.62500000  0.58300000  1.0
  S2-  S1  1  0.61645000  0.12500000  0.58300000  1.0
  S2-  S1  1  0.61645000  0.62500000  0.58300000  1.0
  S2-  S1  1  0.13355000  0.12500000  0.08300000  1.0
  S2-  S1  1  0.13355000  0.62500000  0.08300000  1.0
  S2-  S1  1  0.63355000  0.12500000  0.08300000  1.0
  S2-  S1  1  0.63355000  0.62500000  0.08300000  1.0
  S2-  S2  1  0.14175000  0.49935000  0.33920000  1.0
  S2-  S2  1  0.14175000  0.99935000  0.33920000  1.0
  S2-  S2  1  0.64175000  0.49935000  0.33920000  1.0
  S2-  S2  1  0.64175000  0.99935000  0.33920000  1.0
  S2-  S2  1  0.10825000  0.25065000  0.83920000  1.0
  S2-  S2  1  0.10825000  0.75065000  0.83920000  1.0
  S2-  S2  1  0.60825000  0.25065000  0.83920000  1.0
  S2-  S2  1  0.60825000  0.75065000  0.83920000  1.0
  S2-  S2  1  0.35825000  0.24935000  0.66080000  1.0
  S2-  S2  1  0.35825000  0.74935000  0.66080000  1.0
  S2-  S2  1  0.85825000  0.24935000  0.66080000  1.0
  S2-  S2  1  0.85825000  0.74935000  0.66080000  1.0
  S2-  S2  1  0.39175000  0.00065000  0.16080000  1.0
  S2-  S2  1  0.39175000  0.50065000  0.16080000  1.0
  S2-  S2  1  0.89175000  0.00065000  0.16080000  1.0
  S2-  S2  1  0.89175000  0.50065000  0.16080000  1.0
  S2-  S2  1  0.35825000  0.00065000  0.66080000  1.0
  S2-  S2  1  0.35825000  0.50065000  0.66080000  1.0
  S2-  S2  1  0.85825000  0.00065000  0.66080000  1.0
  S2-  S2  1  0.85825000  0.50065000  0.66080000  1.0
  S2-  S2  1  0.39175000  0.24935000  0.16080000  1.0
  S2-  S2  1  0.39175000  0.74935000  0.16080000  1.0
  S2-  S2  1  0.89175000  0.24935000  0.16080000  1.0
  S2-  S2  1  0.89175000  0.74935000  0.16080000  1.0
  S2-  S2  1  0.14175000  0.25065000  0.33920000  1.0
  S2-  S2  1  0.14175000  0.75065000  0.33920000  1.0
  S2-  S2  1  0.64175000  0.25065000  0.33920000  1.0
  S2-  S2  1  0.64175000  0.75065000  0.33920000  1.0
  S2-  S2  1  0.10825000  0.49935000  0.83920000  1.0
  S2-  S2  1  0.10825000  0.99935000  0.83920000  1.0
  S2-  S2  1  0.60825000  0.49935000  0.83920000  1.0
  S2-  S2  1  0.60825000  0.99935000  0.83920000  1.0
  S2-  S3  1  0.13295000  0.37500000  0.06770000  1.0
  S2-  S3  1  0.13295000  0.87500000  0.06770000  1.0
  S2-  S3  1  0.63295000  0.37500000  0.06770000  1.0
  S2-  S3  1  0.63295000  0.87500000  0.06770000  1.0
  S2-  S3  1  0.11705000  0.37500000  0.56770000  1.0
  S2-  S3  1  0.11705000  0.87500000  0.56770000  1.0
  S2-  S3  1  0.61705000  0.37500000  0.56770000  1.0
  S2-  S3  1  0.61705000  0.87500000  0.56770000  1.0
  S2-  S3  1  0.36705000  0.12500000  0.93230000  1.0
  S2-  S3  1  0.36705000  0.62500000  0.93230000  1.0
  S2-  S3  1  0.86705000  0.12500000  0.93230000  1.0
  S2-  S3  1  0.86705000  0.62500000  0.93230000  1.0
  S2-  S3  1  0.38295000  0.12500000  0.43230000  1.0
  S2-  S3  1  0.38295000  0.62500000  0.43230000  1.0
  S2-  S3  1  0.88295000  0.12500000  0.43230000  1.0
  S2-  S3  1  0.88295000  0.62500000  0.43230000  1.0
