# generated using pymatgen
data_Li19Ge4SbS20
_symmetry_space_group_name_H-M   'P 1'
_cell_length_a   14.00530000
_cell_length_b   7.79700000
_cell_length_c   30.89850000
_cell_angle_alpha   90.00000000
_cell_angle_beta   90.00000000
_cell_angle_gamma   90.00000000
_symmetry_Int_Tables_number   1
_chemical_formula_structural   Li19Ge4SbS20
_chemical_formula_sum   'Li76 Ge16 Sb4 S80'
_cell_volume   3374.09531570
_cell_formula_units_Z   4
loop_
 _symmetry_equiv_pos_site_id
 _symmetry_equiv_pos_as_xyz
  1  'x, y, z'
loop_
 _atom_type_symbol
 _atom_type_oxidation_number
  Li+  1.0
  Ge4+  4.0
  Sb5+  5.0
  S2-  -2.0
loop_
 _atom_site_type_symbol
 _atom_site_label
 _atom_site_symmetry_multiplicity
 _atom_site_fract_x
 _atom_site_fract_y
 _atom_site_fract_z
 _atom_site_occupancy
  Li+  Li0  1  0.18300000  0.48000000  0.64100000  1.0
  Li+  Li1  1  0.81700000  0.52000000  0.75900000  1.0
  Li+  Li2  1  0.81700000  0.52000000  0.95900000  1.0
  Li+  Li3  1  0.31700000  0.52000000  0.34100000  1.0
  Li+  Li4  1  0.31700000  0.52000000  0.54100000  1.0
  Li+  Li5  1  0.31700000  0.52000000  0.74100000  1.0
  Li+  Li6  1  0.31700000  0.52000000  0.94100000  1.0
  Li+  Li7  1  0.81700000  0.98000000  0.15900000  1.0
  Li+  Li8  1  0.81700000  0.98000000  0.55900000  1.0
  Li+  Li9  1  0.68300000  0.02000000  0.85900000  1.0
  Li+  Li10  1  0.31700000  0.98000000  0.34100000  1.0
  Li+  Li11  1  0.31700000  0.98000000  0.54100000  1.0
  Li+  Li12  1  0.31700000  0.98000000  0.94100000  1.0
  Li+  Li13  1  0.00760000  0.97800000  0.09300000  1.0
  Li+  Li14  1  0.00760000  0.97800000  0.29300000  1.0
  Li+  Li15  1  0.00760000  0.97800000  0.49300000  1.0
  Li+  Li16  1  0.00760000  0.97800000  0.69300000  1.0
  Li+  Li17  1  0.00760000  0.97800000  0.89300000  1.0
  Li+  Li18  1  0.99240000  0.02200000  0.30700000  1.0
  Li+  Li19  1  0.49240000  0.02200000  0.19300000  1.0
  Li+  Li20  1  0.49240000  0.02200000  0.59300000  1.0
  Li+  Li21  1  0.49240000  0.02200000  0.99300000  1.0
  Li+  Li22  1  0.50760000  0.97800000  0.00700000  1.0
  Li+  Li23  1  0.50760000  0.97800000  0.20700000  1.0
  Li+  Li24  1  0.50760000  0.97800000  0.40700000  1.0
  Li+  Li25  1  0.99240000  0.47800000  0.30700000  1.0
  Li+  Li26  1  0.99240000  0.47800000  0.70700000  1.0
  Li+  Li27  1  0.00760000  0.52200000  0.89300000  1.0
  Li+  Li28  1  0.49240000  0.47800000  0.19300000  1.0
  Li+  Li29  1  0.17270000  0.00110000  0.06320000  1.0
  Li+  Li30  1  0.17270000  0.00110000  0.86320000  1.0
  Li+  Li31  1  0.82730000  0.99890000  0.13680000  1.0
  Li+  Li32  1  0.82730000  0.99890000  0.33680000  1.0
  Li+  Li33  1  0.82730000  0.99890000  0.73680000  1.0
  Li+  Li34  1  0.82730000  0.99890000  0.93680000  1.0
  Li+  Li35  1  0.32730000  0.99890000  0.16320000  1.0
  Li+  Li36  1  0.67270000  0.00110000  0.03680000  1.0
  Li+  Li37  1  0.67270000  0.00110000  0.23680000  1.0
  Li+  Li38  1  0.67270000  0.00110000  0.43680000  1.0
  Li+  Li39  1  0.67270000  0.00110000  0.63680000  1.0
  Li+  Li40  1  0.67270000  0.00110000  0.83680000  1.0
  Li+  Li41  1  0.82730000  0.50110000  0.13680000  1.0
  Li+  Li42  1  0.82730000  0.50110000  0.33680000  1.0
  Li+  Li43  1  0.82730000  0.50110000  0.53680000  1.0
  Li+  Li44  1  0.82730000  0.50110000  0.73680000  1.0
  Li+  Li45  1  0.17270000  0.49890000  0.06320000  1.0
  Li+  Li46  1  0.17270000  0.49890000  0.26320000  1.0
  Li+  Li47  1  0.17270000  0.49890000  0.46320000  1.0
  Li+  Li48  1  0.17270000  0.49890000  0.66320000  1.0
  Li+  Li49  1  0.17270000  0.49890000  0.86320000  1.0
  Li+  Li50  1  0.67270000  0.49890000  0.03680000  1.0
  Li+  Li51  1  0.67270000  0.49890000  0.23680000  1.0
  Li+  Li52  1  0.67270000  0.49890000  0.43680000  1.0
  Li+  Li53  1  0.67270000  0.49890000  0.63680000  1.0
  Li+  Li54  1  0.67270000  0.49890000  0.83680000  1.0
  Li+  Li55  1  0.32730000  0.50110000  0.16320000  1.0
  Li+  Li56  1  0.32730000  0.50110000  0.36320000  1.0
  Li+  Li57  1  0.41310000  0.75000000  0.27260000  1.0
  Li+  Li58  1  0.41310000  0.75000000  0.47260000  1.0
  Li+  Li59  1  0.41310000  0.75000000  0.67260000  1.0
  Li+  Li60  1  0.41310000  0.75000000  0.87260000  1.0
  Li+  Li61  1  0.58690000  0.25000000  0.12740000  1.0
  Li+  Li62  1  0.58690000  0.25000000  0.32740000  1.0
  Li+  Li63  1  0.58690000  0.25000000  0.52740000  1.0
  Li+  Li64  1  0.58690000  0.25000000  0.72740000  1.0
  Li+  Li65  1  0.58690000  0.25000000  0.92740000  1.0
  Li+  Li66  1  0.08690000  0.25000000  0.17260000  1.0
  Li+  Li67  1  0.08690000  0.25000000  0.37260000  1.0
  Li+  Li68  1  0.08690000  0.25000000  0.57260000  1.0
  Li+  Li69  1  0.08690000  0.25000000  0.77260000  1.0
  Li+  Li70  1  0.08690000  0.25000000  0.97260000  1.0
  Li+  Li71  1  0.91310000  0.75000000  0.02740000  1.0
  Li+  Li72  1  0.91310000  0.75000000  0.22740000  1.0
  Li+  Li73  1  0.91310000  0.75000000  0.42740000  1.0
  Li+  Li74  1  0.91310000  0.75000000  0.62740000  1.0
  Li+  Li75  1  0.91310000  0.75000000  0.82740000  1.0
  Ge4+  Ge76  1  0.41140000  0.25000000  0.26998000  1.0
  Ge4+  Ge77  1  0.41140000  0.25000000  0.46998000  1.0
  Ge4+  Ge78  1  0.41140000  0.25000000  0.86998000  1.0
  Ge4+  Ge79  1  0.58860000  0.75000000  0.13002000  1.0
  Ge4+  Ge80  1  0.58860000  0.75000000  0.33002000  1.0
  Ge4+  Ge81  1  0.58860000  0.75000000  0.53002000  1.0
  Ge4+  Ge82  1  0.58860000  0.75000000  0.73002000  1.0
  Ge4+  Ge83  1  0.58860000  0.75000000  0.93002000  1.0
  Ge4+  Ge84  1  0.08860000  0.75000000  0.36998000  1.0
  Ge4+  Ge85  1  0.08860000  0.75000000  0.76998000  1.0
  Ge4+  Ge86  1  0.08860000  0.75000000  0.96998000  1.0
  Ge4+  Ge87  1  0.91140000  0.25000000  0.03002000  1.0
  Ge4+  Ge88  1  0.91140000  0.25000000  0.23002000  1.0
  Ge4+  Ge89  1  0.91140000  0.25000000  0.43002000  1.0
  Ge4+  Ge90  1  0.91140000  0.25000000  0.63002000  1.0
  Ge4+  Ge91  1  0.91140000  0.25000000  0.83002000  1.0
  Sb5+  Sb92  1  0.41140000  0.25000000  0.06998000  1.0
  Sb5+  Sb93  1  0.41140000  0.25000000  0.66998000  1.0
  Sb5+  Sb94  1  0.08860000  0.75000000  0.16998000  1.0
  Sb5+  Sb95  1  0.08860000  0.75000000  0.56998000  1.0
  S2-  S1  1  0.34240000  0.01590000  0.04444000  1.0
  S2-  S1  1  0.34240000  0.01590000  0.24444000  1.0
  S2-  S1  1  0.34240000  0.01590000  0.44444000  1.0
  S2-  S1  1  0.34240000  0.01590000  0.64444000  1.0
  S2-  S1  1  0.34240000  0.01590000  0.84444000  1.0
  S2-  S1  1  0.65760000  0.98410000  0.15556000  1.0
  S2-  S1  1  0.65760000  0.98410000  0.35556000  1.0
  S2-  S1  1  0.65760000  0.98410000  0.55556000  1.0
  S2-  S1  1  0.65760000  0.98410000  0.75556000  1.0
  S2-  S1  1  0.65760000  0.98410000  0.95556000  1.0
  S2-  S1  1  0.15760000  0.98410000  0.14444000  1.0
  S2-  S1  1  0.15760000  0.98410000  0.34444000  1.0
  S2-  S1  1  0.15760000  0.98410000  0.54444000  1.0
  S2-  S1  1  0.15760000  0.98410000  0.74444000  1.0
  S2-  S1  1  0.15760000  0.98410000  0.94444000  1.0
  S2-  S1  1  0.84240000  0.01590000  0.05556000  1.0
  S2-  S1  1  0.84240000  0.01590000  0.25556000  1.0
  S2-  S1  1  0.84240000  0.01590000  0.45556000  1.0
  S2-  S1  1  0.84240000  0.01590000  0.65556000  1.0
  S2-  S1  1  0.84240000  0.01590000  0.85556000  1.0
  S2-  S1  1  0.65760000  0.51590000  0.15556000  1.0
  S2-  S1  1  0.65760000  0.51590000  0.35556000  1.0
  S2-  S1  1  0.65760000  0.51590000  0.55556000  1.0
  S2-  S1  1  0.65760000  0.51590000  0.75556000  1.0
  S2-  S1  1  0.65760000  0.51590000  0.95556000  1.0
  S2-  S1  1  0.34240000  0.48410000  0.04444000  1.0
  S2-  S1  1  0.34240000  0.48410000  0.24444000  1.0
  S2-  S1  1  0.34240000  0.48410000  0.44444000  1.0
  S2-  S1  1  0.34240000  0.48410000  0.64444000  1.0
  S2-  S1  1  0.34240000  0.48410000  0.84444000  1.0
  S2-  S1  1  0.84240000  0.48410000  0.05556000  1.0
  S2-  S1  1  0.84240000  0.48410000  0.25556000  1.0
  S2-  S1  1  0.84240000  0.48410000  0.45556000  1.0
  S2-  S1  1  0.84240000  0.48410000  0.65556000  1.0
  S2-  S1  1  0.84240000  0.48410000  0.85556000  1.0
  S2-  S1  1  0.15760000  0.51590000  0.14444000  1.0
  S2-  S1  1  0.15760000  0.51590000  0.34444000  1.0
  S2-  S1  1  0.15760000  0.51590000  0.54444000  1.0
  S2-  S1  1  0.15760000  0.51590000  0.74444000  1.0
  S2-  S1  1  0.15760000  0.51590000  0.94444000  1.0
  S2-  S2  1  0.08620000  0.75000000  0.04092000  1.0
  S2-  S2  1  0.08620000  0.75000000  0.24092000  1.0
  S2-  S2  1  0.08620000  0.75000000  0.44092000  1.0
  S2-  S2  1  0.08620000  0.75000000  0.64092000  1.0
  S2-  S2  1  0.08620000  0.75000000  0.84092000  1.0
  S2-  S2  1  0.91380000  0.25000000  0.15908000  1.0
  S2-  S2  1  0.91380000  0.25000000  0.35908000  1.0
  S2-  S2  1  0.91380000  0.25000000  0.55908000  1.0
  S2-  S2  1  0.91380000  0.25000000  0.75908000  1.0
  S2-  S2  1  0.91380000  0.25000000  0.95908000  1.0
  S2-  S2  1  0.41380000  0.25000000  0.14092000  1.0
  S2-  S2  1  0.41380000  0.25000000  0.34092000  1.0
  S2-  S2  1  0.41380000  0.25000000  0.54092000  1.0
  S2-  S2  1  0.41380000  0.25000000  0.74092000  1.0
  S2-  S2  1  0.41380000  0.25000000  0.94092000  1.0
  S2-  S2  1  0.58620000  0.75000000  0.05908000  1.0
  S2-  S2  1  0.58620000  0.75000000  0.25908000  1.0
  S2-  S2  1  0.58620000  0.75000000  0.45908000  1.0
  S2-  S2  1  0.58620000  0.75000000  0.65908000  1.0
  S2-  S2  1  0.58620000  0.75000000  0.85908000  1.0
  S2-  S3  1  0.06200000  0.25000000  0.05268000  1.0
  S2-  S3  1  0.06200000  0.25000000  0.25268000  1.0
  S2-  S3  1  0.06200000  0.25000000  0.45268000  1.0
  S2-  S3  1  0.06200000  0.25000000  0.65268000  1.0
  S2-  S3  1  0.06200000  0.25000000  0.85268000  1.0
  S2-  S3  1  0.93800000  0.75000000  0.14732000  1.0
  S2-  S3  1  0.93800000  0.75000000  0.34732000  1.0
  S2-  S3  1  0.93800000  0.75000000  0.54732000  1.0
  S2-  S3  1  0.93800000  0.75000000  0.74732000  1.0
  S2-  S3  1  0.93800000  0.75000000  0.94732000  1.0
  S2-  S3  1  0.43800000  0.75000000  0.15268000  1.0
  S2-  S3  1  0.43800000  0.75000000  0.35268000  1.0
  S2-  S3  1  0.43800000  0.75000000  0.55268000  1.0
  S2-  S3  1  0.43800000  0.75000000  0.75268000  1.0
  S2-  S3  1  0.43800000  0.75000000  0.95268000  1.0
  S2-  S3  1  0.56200000  0.25000000  0.04732000  1.0
  S2-  S3  1  0.56200000  0.25000000  0.24732000  1.0
  S2-  S3  1  0.56200000  0.25000000  0.44732000  1.0
  S2-  S3  1  0.56200000  0.25000000  0.64732000  1.0
  S2-  S3  1  0.56200000  0.25000000  0.84732000  1.0
