# generated using pymatgen
data_Li3N
_symmetry_space_group_name_H-M   'P 1'
_cell_length_a   10.93653000
_cell_length_b   15.49124000
_cell_length_c   10.93653000
_cell_angle_alpha   90.00000000
_cell_angle_beta   60.00000000
_cell_angle_gamma   90.00000000
_symmetry_Int_Tables_number   1
_chemical_formula_structural   Li3N
_chemical_formula_sum   'Li108 N36'
_cell_volume   1604.63370883
_cell_formula_units_Z   36
loop_
 _symmetry_equiv_pos_site_id
 _symmetry_equiv_pos_as_xyz
  1  'x, y, z'
loop_
 _atom_type_symbol
 _atom_type_oxidation_number
  Li+  1.0
  N3-  -3.0
loop_
 _atom_site_type_symbol
 _atom_site_label
 _atom_site_symmetry_multiplicity
 _atom_site_fract_x
 _atom_site_fract_y
 _atom_site_fract_z
 _atom_site_occupancy
  Li+  Li0  1  0.00130064  0.87376050  0.75273064  1.0
  Li+  Li1  1  0.00000000  0.37500000  0.75000000  1.0
  Li+  Li2  1  0.99937050  0.62401731  0.74976786  1.0
  Li+  Li3  1  0.00087595  0.12650063  0.75202304  1.0
  Li+  Li4  1  0.00000000  0.87500000  0.41666667  1.0
  Li+  Li5  1  0.99748724  0.37631263  0.41439000  1.0
  Li+  Li6  1  0.00000000  0.62500000  0.41666667  1.0
  Li+  Li7  1  0.00000608  0.12298364  0.41601685  1.0
  Li+  Li8  1  0.00094314  0.88120245  0.08122993  1.0
  Li+  Li9  1  0.00000000  0.37500000  0.08333333  1.0
  Li+  Li10  1  0.00000000  0.62500000  0.08333333  1.0
  Li+  Li11  1  0.99832311  0.12207977  0.08435627  1.0
  Li+  Li12  1  0.33526826  0.87364158  0.75268614  1.0
  Li+  Li13  1  0.33574851  0.37248808  0.74951526  1.0
  Li+  Li14  1  0.33333333  0.62500000  0.75000000  1.0
  Li+  Li15  1  0.33333333  0.12500000  0.75000000  1.0
  Li+  Li16  1  0.33084748  0.87283402  0.41471070  1.0
  Li+  Li17  1  0.33333333  0.37500000  0.41666667  1.0
  Li+  Li18  1  0.33144062  0.62294781  0.41373508  1.0
  Li+  Li19  1  0.33248871  0.12136097  0.41451455  1.0
  Li+  Li20  1  0.33333333  0.87500000  0.08333333  1.0
  Li+  Li21  1  0.33333333  0.37500000  0.08333333  1.0
  Li+  Li22  1  0.33333333  0.62500000  0.08333333  1.0
  Li+  Li23  1  0.33281600  0.12924212  0.08392209  1.0
  Li+  Li24  1  0.66666667  0.87500000  0.75000000  1.0
  Li+  Li25  1  0.66603223  0.37250871  0.74979619  1.0
  Li+  Li26  1  0.66666667  0.62500000  0.75000000  1.0
  Li+  Li27  1  0.66666667  0.12500000  0.75000000  1.0
  Li+  Li28  1  0.66666667  0.87500000  0.41666667  1.0
  Li+  Li29  1  0.66666667  0.37500000  0.41666667  1.0
  Li+  Li30  1  0.66666667  0.62500000  0.41666667  1.0
  Li+  Li31  1  0.66666667  0.12500000  0.41666667  1.0
  Li+  Li32  1  0.66666667  0.87500000  0.08333333  1.0
  Li+  Li33  1  0.66666667  0.37500000  0.08333333  1.0
  Li+  Li34  1  0.66666667  0.62500000  0.08333333  1.0
  Li+  Li35  1  0.66666667  0.12500000  0.08333333  1.0
  Li+  Li36  1  0.22222222  0.00000000  0.63888889  1.0
  Li+  Li37  1  0.21906987  0.50203035  0.63814654  1.0
  Li+  Li38  1  0.22222222  0.75000000  0.63888889  1.0
  Li+  Li39  1  0.22064538  0.25142599  0.63715987  1.0
  Li+  Li40  1  0.22222222  0.00000000  0.30555556  1.0
  Li+  Li41  1  0.22222222  0.50000000  0.30555556  1.0
  Li+  Li42  1  0.22222222  0.75000000  0.30555556  1.0
  Li+  Li43  1  0.22222222  0.25000000  0.30555556  1.0
  Li+  Li44  1  0.22222222  0.00000000  0.97222222  1.0
  Li+  Li45  1  0.22222222  0.50000000  0.97222222  1.0
  Li+  Li46  1  0.22222222  0.75000000  0.97222222  1.0
  Li+  Li47  1  0.22148540  0.25288171  0.97604745  1.0
  Li+  Li48  1  0.55555556  0.00000000  0.63888889  1.0
  Li+  Li49  1  0.55555556  0.50000000  0.63888889  1.0
  Li+  Li50  1  0.55555556  0.75000000  0.63888889  1.0
  Li+  Li51  1  0.55555556  0.25000000  0.63888889  1.0
  Li+  Li52  1  0.55555556  0.00000000  0.30555556  1.0
  Li+  Li53  1  0.55151386  0.50127569  0.30369994  1.0
  Li+  Li54  1  0.55555556  0.75000000  0.30555556  1.0
  Li+  Li55  1  0.55658543  0.25034439  0.30480651  1.0
  Li+  Li56  1  0.55555556  0.00000000  0.97222222  1.0
  Li+  Li57  1  0.55160746  0.50324660  0.97009327  1.0
  Li+  Li58  1  0.55564824  0.74960700  0.97360247  1.0
  Li+  Li59  1  0.55704071  0.24674409  0.96969779  1.0
  Li+  Li60  1  0.88888889  0.00000000  0.63888889  1.0
  Li+  Li61  1  0.88888889  0.50000000  0.63888889  1.0
  Li+  Li62  1  0.88888889  0.75000000  0.63888889  1.0
  Li+  Li63  1  0.89079746  0.25242304  0.64081588  1.0
  Li+  Li64  1  0.88922920  0.00461730  0.30518172  1.0
  Li+  Li65  1  0.88888889  0.50000000  0.30555556  1.0
  Li+  Li66  1  0.88888889  0.75000000  0.30555556  1.0
  Li+  Li67  1  0.89132461  0.25114688  0.30574323  1.0
  Li+  Li68  1  0.88888889  0.00000000  0.97222222  1.0
  Li+  Li69  1  0.88888889  0.50000000  0.97222222  1.0
  Li+  Li70  1  0.88888889  0.75000000  0.97222222  1.0
  Li+  Li71  1  0.89119424  0.24841937  0.97314884  1.0
  Li+  Li72  1  0.11111111  0.00000000  0.52777778  1.0
  Li+  Li73  1  0.11111111  0.50000000  0.52777778  1.0
  Li+  Li74  1  0.11111111  0.75000000  0.52777778  1.0
  Li+  Li75  1  0.11111111  0.25000000  0.52777778  1.0
  Li+  Li76  1  0.11111111  0.00000000  0.19444444  1.0
  Li+  Li77  1  0.11111111  0.50000000  0.19444444  1.0
  Li+  Li78  1  0.11111111  0.75000000  0.19444444  1.0
  Li+  Li79  1  0.11111111  0.25000000  0.19444444  1.0
  Li+  Li80  1  0.11111111  0.00000000  0.86111111  1.0
  Li+  Li81  1  0.11111111  0.50000000  0.86111111  1.0
  Li+  Li82  1  0.11043269  0.75281015  0.85967679  1.0
  Li+  Li83  1  0.11111111  0.25000000  0.86111111  1.0
  Li+  Li84  1  0.44444444  0.00000000  0.52777778  1.0
  Li+  Li85  1  0.44499749  0.49474409  0.53190740  1.0
  Li+  Li86  1  0.44444444  0.75000000  0.52777778  1.0
  Li+  Li87  1  0.44444444  0.25000000  0.52777778  1.0
  Li+  Li88  1  0.44444444  0.00000000  0.19444444  1.0
  Li+  Li89  1  0.44444444  0.50000000  0.19444444  1.0
  Li+  Li90  1  0.44444444  0.75000000  0.19444444  1.0
  Li+  Li91  1  0.44444444  0.25000000  0.19444444  1.0
  Li+  Li92  1  0.44444444  0.00000000  0.86111111  1.0
  Li+  Li93  1  0.44444444  0.50000000  0.86111111  1.0
  Li+  Li94  1  0.44444444  0.75000000  0.86111111  1.0
  Li+  Li95  1  0.44444444  0.25000000  0.86111111  1.0
  Li+  Li96  1  0.77464000  0.99784161  0.52874512  1.0
  Li+  Li97  1  0.77777778  0.50000000  0.52777778  1.0
  Li+  Li98  1  0.77777778  0.75000000  0.52777778  1.0
  Li+  Li99  1  0.77777778  0.25000000  0.52777778  1.0
  Li+  Li100  1  0.77777778  0.00000000  0.19444444  1.0
  Li+  Li101  1  0.77777778  0.50000000  0.19444444  1.0
  Li+  Li102  1  0.77777486  0.74782124  0.19628310  1.0
  Li+  Li103  1  0.77777778  0.25000000  0.19444444  1.0
  Li+  Li104  1  0.77777778  0.00000000  0.86111111  1.0
  Li+  Li105  1  0.77777778  0.50000000  0.86111111  1.0
  Li+  Li106  1  0.77777778  0.75000000  0.86111111  1.0
  Li+  Li107  1  0.77777778  0.25000000  0.86111111  1.0
  N3-  N108  1  0.00000000  0.00000000  0.75000000  1.0
  N3-  N109  1  0.00260091  0.49931138  0.75038817  1.0
  N3-  N110  1  0.00000000  0.75000000  0.75000000  1.0
  N3-  N111  1  0.00000000  0.25000000  0.75000000  1.0
  N3-  N112  1  0.00000000  0.00000000  0.41666667  1.0
  N3-  N113  1  0.00000000  0.50000000  0.41666667  1.0
  N3-  N114  1  0.00000000  0.75000000  0.41666667  1.0
  N3-  N115  1  0.00000000  0.25000000  0.41666667  1.0
  N3-  N116  1  0.00000000  0.00000000  0.08333333  1.0
  N3-  N117  1  0.00000000  0.50000000  0.08333333  1.0
  N3-  N118  1  0.00000000  0.75000000  0.08333333  1.0
  N3-  N119  1  0.00000000  0.25000000  0.08333333  1.0
  N3-  N120  1  0.33333333  0.00000000  0.75000000  1.0
  N3-  N121  1  0.33333333  0.50000000  0.75000000  1.0
  N3-  N122  1  0.33333333  0.75000000  0.75000000  1.0
  N3-  N123  1  0.33525720  0.24639831  0.74891794  1.0
  N3-  N124  1  0.33333333  0.00000000  0.41666667  1.0
  N3-  N125  1  0.33333333  0.50000000  0.41666667  1.0
  N3-  N126  1  0.33333333  0.75000000  0.41666667  1.0
  N3-  N127  1  0.33333333  0.25000000  0.41666667  1.0
  N3-  N128  1  0.33333333  0.00000000  0.08333333  1.0
  N3-  N129  1  0.33333333  0.50000000  0.08333333  1.0
  N3-  N130  1  0.33333333  0.75000000  0.08333333  1.0
  N3-  N131  1  0.33333333  0.25000000  0.08333333  1.0
  N3-  N132  1  0.66666667  0.00000000  0.75000000  1.0
  N3-  N133  1  0.66404325  0.49727492  0.75507220  1.0
  N3-  N134  1  0.66454373  0.74871130  0.75191196  1.0
  N3-  N135  1  0.66666667  0.25182602  0.75149068  1.0
  N3-  N136  1  0.66666667  0.00000000  0.41666667  1.0
  N3-  N137  1  0.66666667  0.50000000  0.41666667  1.0
  N3-  N138  1  0.66666667  0.75000000  0.41666667  1.0
  N3-  N139  1  0.66666667  0.25000000  0.41666667  1.0
  N3-  N140  1  0.66579937  0.99947711  0.08322825  1.0
  N3-  N141  1  0.66666667  0.50000000  0.08333333  1.0
  N3-  N142  1  0.66666667  0.75000000  0.08333333  1.0
  N3-  N143  1  0.66666667  0.25000000  0.08333333  1.0
