# generated using pymatgen
data_Li3N
_symmetry_space_group_name_H-M   'P 1'
_cell_length_a   10.96373500
_cell_length_b   10.96373500
_cell_length_c   15.52977500
_cell_angle_alpha   90.00000000
_cell_angle_beta   90.00000000
_cell_angle_gamma   120.00000000
_symmetry_Int_Tables_number   1
_chemical_formula_structural   Li3N
_chemical_formula_sum   'Li108 N36'
_cell_volume   1616.63826815
_cell_formula_units_Z   36
loop_
 _symmetry_equiv_pos_site_id
 _symmetry_equiv_pos_as_xyz
  1  'x, y, z'
loop_
 _atom_type_symbol
 _atom_type_oxidation_number
  Li+  1.0
  N3-  -3.0
loop_
 _atom_site_type_symbol
 _atom_site_label
 _atom_site_symmetry_multiplicity
 _atom_site_fract_x
 _atom_site_fract_y
 _atom_site_fract_z
 _atom_site_occupancy
  Li+  Li0  1  0.00000000  0.66666667  0.12500000  1.0
  Li+  Li1  1  0.00000000  0.66666667  0.62500000  1.0
  Li+  Li2  1  0.00000000  0.66666667  0.37500000  1.0
  Li+  Li3  1  0.00000000  0.66666667  0.87500000  1.0
  Li+  Li4  1  0.66666667  0.66666667  0.12500000  1.0
  Li+  Li5  1  0.66666667  0.66666667  0.62500000  1.0
  Li+  Li6  1  0.66666667  0.66666667  0.37500000  1.0
  Li+  Li7  1  0.66666667  0.66666667  0.87500000  1.0
  Li+  Li8  1  0.33333333  0.66666667  0.12500000  1.0
  Li+  Li9  1  0.33333333  0.66666667  0.62500000  1.0
  Li+  Li10  1  0.33333333  0.66666667  0.37500000  1.0
  Li+  Li11  1  0.33333333  0.66666667  0.87500000  1.0
  Li+  Li12  1  0.00000000  0.33333333  0.12500000  1.0
  Li+  Li13  1  0.00000000  0.33333333  0.62500000  1.0
  Li+  Li14  1  0.00000000  0.33333333  0.37500000  1.0
  Li+  Li15  1  0.00000000  0.33333333  0.87500000  1.0
  Li+  Li16  1  0.66666667  0.33333333  0.12500000  1.0
  Li+  Li17  1  0.66666667  0.33333333  0.62500000  1.0
  Li+  Li18  1  0.66666667  0.33333333  0.37500000  1.0
  Li+  Li19  1  0.66666667  0.33333333  0.87500000  1.0
  Li+  Li20  1  0.33333333  0.33333333  0.12500000  1.0
  Li+  Li21  1  0.33333333  0.33333333  0.62500000  1.0
  Li+  Li22  1  0.33333333  0.33333333  0.37500000  1.0
  Li+  Li23  1  0.33333333  0.33333333  0.87500000  1.0
  Li+  Li24  1  0.00000000  0.00000000  0.12500000  1.0
  Li+  Li25  1  0.00000000  0.00000000  0.62500000  1.0
  Li+  Li26  1  0.00000000  0.00000000  0.37500000  1.0
  Li+  Li27  1  0.00000000  0.00000000  0.87500000  1.0
  Li+  Li28  1  0.66666667  0.00000000  0.12500000  1.0
  Li+  Li29  1  0.66666667  0.00000000  0.62500000  1.0
  Li+  Li30  1  0.66666667  0.00000000  0.37500000  1.0
  Li+  Li31  1  0.66666667  0.00000000  0.87500000  1.0
  Li+  Li32  1  0.33333333  0.00000000  0.12500000  1.0
  Li+  Li33  1  0.33333333  0.00000000  0.62500000  1.0
  Li+  Li34  1  0.33333333  0.00000000  0.37500000  1.0
  Li+  Li35  1  0.33333333  0.00000000  0.87500000  1.0
  Li+  Li36  1  0.88888889  0.44444445  0.00000000  1.0
  Li+  Li37  1  0.88888889  0.44444445  0.50000000  1.0
  Li+  Li38  1  0.88888889  0.44444445  0.25000000  1.0
  Li+  Li39  1  0.88888889  0.44444445  0.75000000  1.0
  Li+  Li40  1  0.55555556  0.44444445  0.00000000  1.0
  Li+  Li41  1  0.55555556  0.44444445  0.50000000  1.0
  Li+  Li42  1  0.55555556  0.44444445  0.25000000  1.0
  Li+  Li43  1  0.55555556  0.44444445  0.75000000  1.0
  Li+  Li44  1  0.22222222  0.44444445  0.00000000  1.0
  Li+  Li45  1  0.22222222  0.44444445  0.50000000  1.0
  Li+  Li46  1  0.22222222  0.44444445  0.25000000  1.0
  Li+  Li47  1  0.22222222  0.44444445  0.75000000  1.0
  Li+  Li48  1  0.88888889  0.11111111  0.00000000  1.0
  Li+  Li49  1  0.88888889  0.11111111  0.50000000  1.0
  Li+  Li50  1  0.88888889  0.11111111  0.25000000  1.0
  Li+  Li51  1  0.88888889  0.11111111  0.75000000  1.0
  Li+  Li52  1  0.55555556  0.11111111  0.00000000  1.0
  Li+  Li53  1  0.55555556  0.11111111  0.50000000  1.0
  Li+  Li54  1  0.55555556  0.11111111  0.25000000  1.0
  Li+  Li55  1  0.55555556  0.11111111  0.75000000  1.0
  Li+  Li56  1  0.22222222  0.11111111  0.00000000  1.0
  Li+  Li57  1  0.22222222  0.11111111  0.50000000  1.0
  Li+  Li58  1  0.22222222  0.11111111  0.25000000  1.0
  Li+  Li59  1  0.22222222  0.11111111  0.75000000  1.0
  Li+  Li60  1  0.88888889  0.77777778  0.00000000  1.0
  Li+  Li61  1  0.88888889  0.77777778  0.50000000  1.0
  Li+  Li62  1  0.88888889  0.77777778  0.25000000  1.0
  Li+  Li63  1  0.88888889  0.77777778  0.75000000  1.0
  Li+  Li64  1  0.55555556  0.77777778  0.00000000  1.0
  Li+  Li65  1  0.55555556  0.77777778  0.50000000  1.0
  Li+  Li66  1  0.55555556  0.77777778  0.25000000  1.0
  Li+  Li67  1  0.55555556  0.77777778  0.75000000  1.0
  Li+  Li68  1  0.22222222  0.77777778  0.00000000  1.0
  Li+  Li69  1  0.22222222  0.77777778  0.50000000  1.0
  Li+  Li70  1  0.22222222  0.77777778  0.25000000  1.0
  Li+  Li71  1  0.22222222  0.77777778  0.75000000  1.0
  Li+  Li72  1  0.77777778  0.55555556  0.00000000  1.0
  Li+  Li73  1  0.77777778  0.55555556  0.50000000  1.0
  Li+  Li74  1  0.77777778  0.55555556  0.25000000  1.0
  Li+  Li75  1  0.77777778  0.55555556  0.75000000  1.0
  Li+  Li76  1  0.44444444  0.55555556  0.00000000  1.0
  Li+  Li77  1  0.44444444  0.55555556  0.50000000  1.0
  Li+  Li78  1  0.44444444  0.55555556  0.25000000  1.0
  Li+  Li79  1  0.44444444  0.55555556  0.75000000  1.0
  Li+  Li80  1  0.11111111  0.55555556  0.00000000  1.0
  Li+  Li81  1  0.11111111  0.55555556  0.50000000  1.0
  Li+  Li82  1  0.11111111  0.55555556  0.25000000  1.0
  Li+  Li83  1  0.11111111  0.55555556  0.75000000  1.0
  Li+  Li84  1  0.77777778  0.22222223  0.00000000  1.0
  Li+  Li85  1  0.77777778  0.22222223  0.50000000  1.0
  Li+  Li86  1  0.77777778  0.22222223  0.25000000  1.0
  Li+  Li87  1  0.77777778  0.22222223  0.75000000  1.0
  Li+  Li88  1  0.44444444  0.22222223  0.00000000  1.0
  Li+  Li89  1  0.44444444  0.22222223  0.50000000  1.0
  Li+  Li90  1  0.44444444  0.22222223  0.25000000  1.0
  Li+  Li91  1  0.44444444  0.22222223  0.75000000  1.0
  Li+  Li92  1  0.11111111  0.22222223  0.00000000  1.0
  Li+  Li93  1  0.11111111  0.22222223  0.50000000  1.0
  Li+  Li94  1  0.11111111  0.22222223  0.25000000  1.0
  Li+  Li95  1  0.11111111  0.22222223  0.75000000  1.0
  Li+  Li96  1  0.77777778  0.88888889  0.00000000  1.0
  Li+  Li97  1  0.77777778  0.88888889  0.50000000  1.0
  Li+  Li98  1  0.77777778  0.88888889  0.25000000  1.0
  Li+  Li99  1  0.77777778  0.88888889  0.75000000  1.0
  Li+  Li100  1  0.44444444  0.88888889  0.00000000  1.0
  Li+  Li101  1  0.44444444  0.88888889  0.50000000  1.0
  Li+  Li102  1  0.44444444  0.88888889  0.25000000  1.0
  Li+  Li103  1  0.44444444  0.88888889  0.75000000  1.0
  Li+  Li104  1  0.11111111  0.88888889  0.00000000  1.0
  Li+  Li105  1  0.11111111  0.88888889  0.50000000  1.0
  Li+  Li106  1  0.11111111  0.88888889  0.25000000  1.0
  Li+  Li107  1  0.11111111  0.88888889  0.75000000  1.0
  N3-  N108  1  0.00000000  0.66666667  0.00000000  1.0
  N3-  N109  1  0.00000000  0.66666667  0.50000000  1.0
  N3-  N110  1  0.00000000  0.66666667  0.25000000  1.0
  N3-  N111  1  0.00000000  0.66666667  0.75000000  1.0
  N3-  N112  1  0.66666667  0.66666667  0.00000000  1.0
  N3-  N113  1  0.66666667  0.66666667  0.50000000  1.0
  N3-  N114  1  0.66666667  0.66666667  0.25000000  1.0
  N3-  N115  1  0.66666667  0.66666667  0.75000000  1.0
  N3-  N116  1  0.33333333  0.66666667  0.00000000  1.0
  N3-  N117  1  0.33333333  0.66666667  0.50000000  1.0
  N3-  N118  1  0.33333333  0.66666667  0.25000000  1.0
  N3-  N119  1  0.33333333  0.66666667  0.75000000  1.0
  N3-  N120  1  0.00000000  0.33333333  0.00000000  1.0
  N3-  N121  1  0.00000000  0.33333333  0.50000000  1.0
  N3-  N122  1  0.00000000  0.33333333  0.25000000  1.0
  N3-  N123  1  0.00000000  0.33333333  0.75000000  1.0
  N3-  N124  1  0.66666667  0.33333333  0.00000000  1.0
  N3-  N125  1  0.66666667  0.33333333  0.50000000  1.0
  N3-  N126  1  0.66666667  0.33333333  0.25000000  1.0
  N3-  N127  1  0.66666667  0.33333333  0.75000000  1.0
  N3-  N128  1  0.33333333  0.33333333  0.00000000  1.0
  N3-  N129  1  0.33333333  0.33333333  0.50000000  1.0
  N3-  N130  1  0.33333333  0.33333333  0.25000000  1.0
  N3-  N131  1  0.33333333  0.33333333  0.75000000  1.0
  N3-  N132  1  0.00000000  0.00000000  0.00000000  1.0
  N3-  N133  1  0.00000000  0.00000000  0.50000000  1.0
  N3-  N134  1  0.00000000  0.00000000  0.25000000  1.0
  N3-  N135  1  0.00000000  0.00000000  0.75000000  1.0
  N3-  N136  1  0.66666667  0.00000000  0.00000000  1.0
  N3-  N137  1  0.66666667  0.00000000  0.50000000  1.0
  N3-  N138  1  0.66666667  0.00000000  0.25000000  1.0
  N3-  N139  1  0.66666667  0.00000000  0.75000000  1.0
  N3-  N140  1  0.33333333  0.00000000  0.00000000  1.0
  N3-  N141  1  0.33333333  0.00000000  0.50000000  1.0
  N3-  N142  1  0.33333333  0.00000000  0.25000000  1.0
  N3-  N143  1  0.33333333  0.00000000  0.75000000  1.0
