# generated using pymatgen
data_Li3N
_symmetry_space_group_name_H-M   'P 1'
_cell_length_a   10.93653000
_cell_length_b   10.93653000
_cell_length_c   15.49124000
_cell_angle_alpha   90.00000000
_cell_angle_beta   90.00000000
_cell_angle_gamma   120.00000000
_symmetry_Int_Tables_number   1
_chemical_formula_structural   Li3N
_chemical_formula_sum   'Li108 N36'
_cell_volume   1604.63370883
_cell_formula_units_Z   36
loop_
 _symmetry_equiv_pos_site_id
 _symmetry_equiv_pos_as_xyz
  1  'x, y, z'
loop_
 _atom_type_symbol
 _atom_type_oxidation_number
  Li+  1.0
  N3-  -3.0
loop_
 _atom_site_type_symbol
 _atom_site_label
 _atom_site_symmetry_multiplicity
 _atom_site_fract_x
 _atom_site_fract_y
 _atom_site_fract_z
 _atom_site_occupancy
  Li+  Li1  1  0.00000000  0.00000000  0.12500000  1.0
  Li+  Li1  1  0.00000000  0.00000000  0.62500000  1.0
  Li+  Li1  1  0.00000000  0.00000000  0.37500000  1.0
  Li+  Li1  1  0.00000000  0.00000000  0.87500000  1.0
  Li+  Li1  1  0.00000000  0.33333333  0.12500000  1.0
  Li+  Li1  1  0.00000000  0.33333333  0.62500000  1.0
  Li+  Li1  1  0.00000000  0.33333333  0.37500000  1.0
  Li+  Li1  1  0.00000000  0.33333333  0.87500000  1.0
  Li+  Li1  1  0.00000000  0.66666667  0.12500000  1.0
  Li+  Li1  1  0.00000000  0.66666667  0.62500000  1.0
  Li+  Li1  1  0.00000000  0.66666667  0.37500000  1.0
  Li+  Li1  1  0.00000000  0.66666667  0.87500000  1.0
  Li+  Li1  1  0.33333333  0.00000000  0.12500000  1.0
  Li+  Li1  1  0.33333333  0.00000000  0.62500000  1.0
  Li+  Li1  1  0.33333333  0.00000000  0.37500000  1.0
  Li+  Li1  1  0.33333333  0.00000000  0.87500000  1.0
  Li+  Li1  1  0.33333333  0.33333333  0.12500000  1.0
  Li+  Li1  1  0.33333333  0.33333333  0.62500000  1.0
  Li+  Li1  1  0.33333333  0.33333333  0.37500000  1.0
  Li+  Li1  1  0.33333333  0.33333333  0.87500000  1.0
  Li+  Li1  1  0.33333333  0.66666667  0.12500000  1.0
  Li+  Li1  1  0.33333333  0.66666667  0.62500000  1.0
  Li+  Li1  1  0.33333333  0.66666667  0.37500000  1.0
  Li+  Li1  1  0.33333333  0.66666667  0.87500000  1.0
  Li+  Li1  1  0.66666667  0.00000000  0.12500000  1.0
  Li+  Li1  1  0.66666667  0.00000000  0.62500000  1.0
  Li+  Li1  1  0.66666667  0.00000000  0.37500000  1.0
  Li+  Li1  1  0.66666667  0.00000000  0.87500000  1.0
  Li+  Li1  1  0.66666667  0.33333333  0.12500000  1.0
  Li+  Li1  1  0.66666667  0.33333333  0.62500000  1.0
  Li+  Li1  1  0.66666667  0.33333333  0.37500000  1.0
  Li+  Li1  1  0.66666667  0.33333333  0.87500000  1.0
  Li+  Li1  1  0.66666667  0.66666667  0.12500000  1.0
  Li+  Li1  1  0.66666667  0.66666667  0.62500000  1.0
  Li+  Li1  1  0.66666667  0.66666667  0.37500000  1.0
  Li+  Li1  1  0.66666667  0.66666667  0.87500000  1.0
  Li+  Li2  1  0.22222222  0.11111111  0.00000000  1.0
  Li+  Li2  1  0.22222222  0.11111111  0.50000000  1.0
  Li+  Li2  1  0.22222222  0.11111111  0.25000000  1.0
  Li+  Li2  1  0.22222222  0.11111111  0.75000000  1.0
  Li+  Li2  1  0.22222222  0.44444444  0.00000000  1.0
  Li+  Li2  1  0.22222222  0.44444444  0.50000000  1.0
  Li+  Li2  1  0.22222222  0.44444444  0.25000000  1.0
  Li+  Li2  1  0.22222222  0.44444444  0.75000000  1.0
  Li+  Li2  1  0.22222222  0.77777778  0.00000000  1.0
  Li+  Li2  1  0.22222222  0.77777778  0.50000000  1.0
  Li+  Li2  1  0.22222222  0.77777778  0.25000000  1.0
  Li+  Li2  1  0.22222222  0.77777778  0.75000000  1.0
  Li+  Li2  1  0.55555556  0.11111111  0.00000000  1.0
  Li+  Li2  1  0.55555556  0.11111111  0.50000000  1.0
  Li+  Li2  1  0.55555556  0.11111111  0.25000000  1.0
  Li+  Li2  1  0.55555556  0.11111111  0.75000000  1.0
  Li+  Li2  1  0.55555556  0.44444444  0.00000000  1.0
  Li+  Li2  1  0.55555556  0.44444444  0.50000000  1.0
  Li+  Li2  1  0.55555556  0.44444444  0.25000000  1.0
  Li+  Li2  1  0.55555556  0.44444444  0.75000000  1.0
  Li+  Li2  1  0.55555556  0.77777778  0.00000000  1.0
  Li+  Li2  1  0.55555556  0.77777778  0.50000000  1.0
  Li+  Li2  1  0.55555556  0.77777778  0.25000000  1.0
  Li+  Li2  1  0.55555556  0.77777778  0.75000000  1.0
  Li+  Li2  1  0.88888889  0.11111111  0.00000000  1.0
  Li+  Li2  1  0.88888889  0.11111111  0.50000000  1.0
  Li+  Li2  1  0.88888889  0.11111111  0.25000000  1.0
  Li+  Li2  1  0.88888889  0.11111111  0.75000000  1.0
  Li+  Li2  1  0.88888889  0.44444444  0.00000000  1.0
  Li+  Li2  1  0.88888889  0.44444444  0.50000000  1.0
  Li+  Li2  1  0.88888889  0.44444444  0.25000000  1.0
  Li+  Li2  1  0.88888889  0.44444444  0.75000000  1.0
  Li+  Li2  1  0.88888889  0.77777778  0.00000000  1.0
  Li+  Li2  1  0.88888889  0.77777778  0.50000000  1.0
  Li+  Li2  1  0.88888889  0.77777778  0.25000000  1.0
  Li+  Li2  1  0.88888889  0.77777778  0.75000000  1.0
  Li+  Li2  1  0.11111111  0.22222222  0.00000000  1.0
  Li+  Li2  1  0.11111111  0.22222222  0.50000000  1.0
  Li+  Li2  1  0.11111111  0.22222222  0.25000000  1.0
  Li+  Li2  1  0.11111111  0.22222222  0.75000000  1.0
  Li+  Li2  1  0.11111111  0.55555556  0.00000000  1.0
  Li+  Li2  1  0.11111111  0.55555556  0.50000000  1.0
  Li+  Li2  1  0.11111111  0.55555556  0.25000000  1.0
  Li+  Li2  1  0.11111111  0.55555556  0.75000000  1.0
  Li+  Li2  1  0.11111111  0.88888889  0.00000000  1.0
  Li+  Li2  1  0.11111111  0.88888889  0.50000000  1.0
  Li+  Li2  1  0.11111111  0.88888889  0.25000000  1.0
  Li+  Li2  1  0.11111111  0.88888889  0.75000000  1.0
  Li+  Li2  1  0.44444444  0.22222222  0.00000000  1.0
  Li+  Li2  1  0.44444444  0.22222222  0.50000000  1.0
  Li+  Li2  1  0.44444444  0.22222222  0.25000000  1.0
  Li+  Li2  1  0.44444444  0.22222222  0.75000000  1.0
  Li+  Li2  1  0.44444444  0.55555556  0.00000000  1.0
  Li+  Li2  1  0.44444444  0.55555556  0.50000000  1.0
  Li+  Li2  1  0.44444444  0.55555556  0.25000000  1.0
  Li+  Li2  1  0.44444444  0.55555556  0.75000000  1.0
  Li+  Li2  1  0.44444444  0.88888889  0.00000000  1.0
  Li+  Li2  1  0.44444444  0.88888889  0.50000000  1.0
  Li+  Li2  1  0.44444444  0.88888889  0.25000000  1.0
  Li+  Li2  1  0.44444444  0.88888889  0.75000000  1.0
  Li+  Li2  1  0.77777778  0.22222222  0.00000000  1.0
  Li+  Li2  1  0.77777778  0.22222222  0.50000000  1.0
  Li+  Li2  1  0.77777778  0.22222222  0.25000000  1.0
  Li+  Li2  1  0.77777778  0.22222222  0.75000000  1.0
  Li+  Li2  1  0.77777778  0.55555556  0.00000000  1.0
  Li+  Li2  1  0.77777778  0.55555556  0.50000000  1.0
  Li+  Li2  1  0.77777778  0.55555556  0.25000000  1.0
  Li+  Li2  1  0.77777778  0.55555556  0.75000000  1.0
  Li+  Li2  1  0.77777778  0.88888889  0.00000000  1.0
  Li+  Li2  1  0.77777778  0.88888889  0.50000000  1.0
  Li+  Li2  1  0.77777778  0.88888889  0.25000000  1.0
  Li+  Li2  1  0.77777778  0.88888889  0.75000000  1.0
  N3-  N1  1  0.00000000  0.00000000  0.00000000  1.0
  N3-  N1  1  0.00000000  0.00000000  0.50000000  1.0
  N3-  N1  1  0.00000000  0.00000000  0.25000000  1.0
  N3-  N1  1  0.00000000  0.00000000  0.75000000  1.0
  N3-  N1  1  0.00000000  0.33333333  0.00000000  1.0
  N3-  N1  1  0.00000000  0.33333333  0.50000000  1.0
  N3-  N1  1  0.00000000  0.33333333  0.25000000  1.0
  N3-  N1  1  0.00000000  0.33333333  0.75000000  1.0
  N3-  N1  1  0.00000000  0.66666667  0.00000000  1.0
  N3-  N1  1  0.00000000  0.66666667  0.50000000  1.0
  N3-  N1  1  0.00000000  0.66666667  0.25000000  1.0
  N3-  N1  1  0.00000000  0.66666667  0.75000000  1.0
  N3-  N1  1  0.33333333  0.00000000  0.00000000  1.0
  N3-  N1  1  0.33333333  0.00000000  0.50000000  1.0
  N3-  N1  1  0.33333333  0.00000000  0.25000000  1.0
  N3-  N1  1  0.33333333  0.00000000  0.75000000  1.0
  N3-  N1  1  0.33333333  0.33333333  0.00000000  1.0
  N3-  N1  1  0.33333333  0.33333333  0.50000000  1.0
  N3-  N1  1  0.33333333  0.33333333  0.25000000  1.0
  N3-  N1  1  0.33333333  0.33333333  0.75000000  1.0
  N3-  N1  1  0.33333333  0.66666667  0.00000000  1.0
  N3-  N1  1  0.33333333  0.66666667  0.50000000  1.0
  N3-  N1  1  0.33333333  0.66666667  0.25000000  1.0
  N3-  N1  1  0.33333333  0.66666667  0.75000000  1.0
  N3-  N1  1  0.66666667  0.00000000  0.00000000  1.0
  N3-  N1  1  0.66666667  0.00000000  0.50000000  1.0
  N3-  N1  1  0.66666667  0.00000000  0.25000000  1.0
  N3-  N1  1  0.66666667  0.00000000  0.75000000  1.0
  N3-  N1  1  0.66666667  0.33333333  0.00000000  1.0
  N3-  N1  1  0.66666667  0.33333333  0.50000000  1.0
  N3-  N1  1  0.66666667  0.33333333  0.25000000  1.0
  N3-  N1  1  0.66666667  0.33333333  0.75000000  1.0
  N3-  N1  1  0.66666667  0.66666667  0.00000000  1.0
  N3-  N1  1  0.66666667  0.66666667  0.50000000  1.0
  N3-  N1  1  0.66666667  0.66666667  0.25000000  1.0
  N3-  N1  1  0.66666667  0.66666667  0.75000000  1.0
