# generated using pymatgen
data_Li24P4S20BrCl3
_symmetry_space_group_name_H-M   'P 1'
_cell_length_a   13.98812777
_cell_length_b   13.98812777
_cell_length_c   13.98812777
_cell_angle_alpha   60.00000000
_cell_angle_beta   120.00000000
_cell_angle_gamma   120.00000000
_symmetry_Int_Tables_number   1
_chemical_formula_structural   Li24P4S20BrCl3
_chemical_formula_sum   'Li48 P8 S40 Br2 Cl6'
_cell_volume   1935.36897100
_cell_formula_units_Z   2
loop_
 _symmetry_equiv_pos_site_id
 _symmetry_equiv_pos_as_xyz
  1  'x, y, z'
loop_
 _atom_type_symbol
 _atom_type_oxidation_number
  Li+  1.0
  P5+  5.0
  S2-  -2.0
  Br-  -1.0
  Cl-  -1.0
loop_
 _atom_site_type_symbol
 _atom_site_label
 _atom_site_symmetry_multiplicity
 _atom_site_fract_x
 _atom_site_fract_y
 _atom_site_fract_z
 _atom_site_occupancy
  Li+  Li0  1  0.32550000  0.50890000  0.25890000  1.0
  Li+  Li1  1  0.32267830  0.51324695  0.75477837  1.0
  Li+  Li2  1  0.32550000  0.00890000  0.75890000  1.0
  Li+  Li3  1  0.82859581  0.01136673  0.26021290  1.0
  Li+  Li4  1  0.82550000  0.00890000  0.75890000  1.0
  Li+  Li5  1  0.69230000  0.50890000  0.25890000  1.0
  Li+  Li6  1  0.69230000  0.50890000  0.75890000  1.0
  Li+  Li7  1  0.69230000  0.67450000  0.25890000  1.0
  Li+  Li8  1  0.69166233  0.17310076  0.26228248  1.0
  Li+  Li9  1  0.69230000  0.67450000  0.75890000  1.0
  Li+  Li10  1  0.48915106  0.67512739  0.55643925  1.0
  Li+  Li11  1  0.49110000  0.17450000  0.55770000  1.0
  Li+  Li12  1  0.99110000  0.17450000  0.55770000  1.0
  Li+  Li13  1  0.98943796  0.67334297  0.05618913  1.0
  Li+  Li14  1  0.49110000  0.50890000  0.55770000  1.0
  Li+  Li15  1  0.48927592  0.50782938  0.06050833  1.0
  Li+  Li16  1  0.49110000  0.00890000  0.05770000  1.0
  Li+  Li17  1  0.99110000  0.00890000  0.55770000  1.0
  Li+  Li18  1  0.98620911  0.00778830  0.05948071  1.0
  Li+  Li19  1  0.19230000  0.00890000  0.42450000  1.0
  Li+  Li20  1  0.19230000  0.50890000  0.92450000  1.0
  Li+  Li21  1  0.19230000  0.00890000  0.92450000  1.0
  Li+  Li22  1  0.69230000  0.00890000  0.92450000  1.0
  Li+  Li23  1  0.32867499  0.50488717  0.55840317  1.0
  Li+  Li24  1  0.32550000  0.50890000  0.05770000  1.0
  Li+  Li25  1  0.32550000  0.00890000  0.05770000  1.0
  Li+  Li26  1  0.82550000  0.50890000  0.55770000  1.0
  Li+  Li27  1  0.82550000  0.50890000  0.05770000  1.0
  Li+  Li28  1  0.49110000  0.30770000  0.42450000  1.0
  Li+  Li29  1  0.49110000  0.80770000  0.92450000  1.0
  Li+  Li30  1  0.49110000  0.30770000  0.92450000  1.0
  Li+  Li31  1  0.99110000  0.80770000  0.42450000  1.0
  Li+  Li32  1  0.32550000  0.80770000  0.25890000  1.0
  Li+  Li33  1  0.32565965  0.30806123  0.25829689  1.0
  Li+  Li34  1  0.32550000  0.80770000  0.75890000  1.0
  Li+  Li35  1  0.32550000  0.30770000  0.75890000  1.0
  Li+  Li36  1  0.82550000  0.80770000  0.75890000  1.0
  Li+  Li37  1  0.49110000  0.00890000  0.92450000  1.0
  Li+  Li38  1  0.99110000  0.50890000  0.42450000  1.0
  Li+  Li39  1  0.49175694  0.81012432  0.25985515  1.0
  Li+  Li40  1  0.49110000  0.30770000  0.25890000  1.0
  Li+  Li41  1  0.49110000  0.30770000  0.75890000  1.0
  Li+  Li42  1  0.99110000  0.80770000  0.25890000  1.0
  Li+  Li43  1  0.99110000  0.30770000  0.75890000  1.0
  Li+  Li44  1  0.49110000  0.67450000  0.75890000  1.0
  Li+  Li45  1  0.99110000  0.67450000  0.25890000  1.0
  Li+  Li46  1  0.99110000  0.67450000  0.75890000  1.0
  Li+  Li47  1  0.99498608  0.16987736  0.76023685  1.0
  P5+  P48  1  0.25000000  0.75000000  0.50000000  1.0
  P5+  P49  1  0.25000000  0.25000000  0.50000000  1.0
  P5+  P50  1  0.25000000  0.75000000  0.00000000  1.0
  P5+  P51  1  0.25000000  0.25000000  0.00000000  1.0
  P5+  P52  1  0.74551786  0.74923096  0.49973038  1.0
  P5+  P53  1  0.75000000  0.25000000  0.50000000  1.0
  P5+  P54  1  0.75139477  0.74917526  0.00177483  1.0
  P5+  P55  1  0.75000000  0.25000000  0.00000000  1.0
  S2-  S56  1  0.19110000  0.80890000  0.55890000  1.0
  S2-  S57  1  0.19249010  0.30927151  0.55982519  1.0
  S2-  S58  1  0.18639929  0.80654871  0.06333022  1.0
  S2-  S59  1  0.19110000  0.30890000  0.05890000  1.0
  S2-  S60  1  0.69110000  0.80890000  0.55890000  1.0
  S2-  S61  1  0.69110000  0.30890000  0.55890000  1.0
  S2-  S62  1  0.69110000  0.80890000  0.05890000  1.0
  S2-  S63  1  0.69110000  0.30890000  0.05890000  1.0
  S2-  S64  1  0.42670000  0.80890000  0.55890000  1.0
  S2-  S65  1  0.42277449  0.31290196  0.55957991  1.0
  S2-  S66  1  0.42222910  0.81093164  0.05892182  1.0
  S2-  S67  1  0.42670000  0.30890000  0.05890000  1.0
  S2-  S68  1  0.92882520  0.81114844  0.55454951  1.0
  S2-  S69  1  0.92670000  0.30890000  0.55890000  1.0
  S2-  S70  1  0.92670000  0.80890000  0.05890000  1.0
  S2-  S71  1  0.92686011  0.31197450  0.05374490  1.0
  S2-  S72  1  0.19635927  0.80707171  0.32589224  1.0
  S2-  S73  1  0.19110000  0.30890000  0.32330000  1.0
  S2-  S74  1  0.19110000  0.80890000  0.82330000  1.0
  S2-  S75  1  0.19110000  0.30890000  0.82330000  1.0
  S2-  S76  1  0.69009282  0.80709210  0.32572917  1.0
  S2-  S77  1  0.69310312  0.30852819  0.32554693  1.0
  S2-  S78  1  0.69110000  0.80890000  0.82330000  1.0
  S2-  S79  1  0.69110000  0.30890000  0.82330000  1.0
  S2-  S80  1  0.19110000  0.57330000  0.55890000  1.0
  S2-  S81  1  0.19110000  0.07330000  0.55890000  1.0
  S2-  S82  1  0.19110000  0.57330000  0.05890000  1.0
  S2-  S83  1  0.19110000  0.07330000  0.05890000  1.0
  S2-  S84  1  0.69110000  0.57330000  0.55890000  1.0
  S2-  S85  1  0.69110000  0.07330000  0.55890000  1.0
  S2-  S86  1  0.69110000  0.57330000  0.05890000  1.0
  S2-  S87  1  0.69110000  0.07330000  0.05890000  1.0
  S2-  S88  1  0.37500000  0.62500000  0.37500000  1.0
  S2-  S89  1  0.37500000  0.62500000  0.87500000  1.0
  S2-  S90  1  0.37500000  0.12500000  0.87500000  1.0
  S2-  S91  1  0.00000000  0.00000000  0.75000000  1.0
  S2-  S92  1  0.99975242  0.00087575  0.25545999  1.0
  S2-  S93  1  0.50000000  0.50000000  0.75000000  1.0
  S2-  S94  1  0.50000000  0.00000000  0.25000000  1.0
  S2-  S95  1  0.50208777  0.49932922  0.25577517  1.0
  Br-  Br96  1  0.87500000  0.12500000  0.37500000  1.0
  Br-  Br97  1  0.00000000  0.50000000  0.75000000  1.0
  Cl-  Cl98  1  0.37529502  0.12354552  0.37447130  1.0
  Cl-  Cl99  1  0.87500000  0.62500000  0.37500000  1.0
  Cl-  Cl100  1  0.87500000  0.62500000  0.87500000  1.0
  Cl-  Cl101  1  0.87500000  0.12500000  0.87500000  1.0
  Cl-  Cl102  1  0.99978286  0.50106484  0.25094915  1.0
  Cl-  Cl103  1  0.50000000  0.00000000  0.75000000  1.0
