# generated using pymatgen
data_Li33Si3P2(S5I)5
_symmetry_space_group_name_H-M   'P 1'
_cell_length_a   7.22154721
_cell_length_b   36.10773603
_cell_length_c   14.44309441
_cell_angle_alpha   60.00000000
_cell_angle_beta   60.00000000
_cell_angle_gamma   60.00000000
_symmetry_Int_Tables_number   1
_chemical_formula_structural   Li33Si3P2(S5I)5
_chemical_formula_sum   'Li66 Si6 P4 S50 I10'
_cell_volume   2663.02820275
_cell_formula_units_Z   2
loop_
 _symmetry_equiv_pos_site_id
 _symmetry_equiv_pos_as_xyz
  1  'x, y, z'
loop_
 _atom_type_symbol
 _atom_type_oxidation_number
  Li+  1.0
  Si4+  4.0
  P5+  5.0
  S2-  -2.0
  I-  -1.0
loop_
 _atom_site_type_symbol
 _atom_site_label
 _atom_site_symmetry_multiplicity
 _atom_site_fract_x
 _atom_site_fract_y
 _atom_site_fract_z
 _atom_site_occupancy
  Li+  Li0  1  0.39921000  0.00047800  0.79800500  1.0
  Li+  Li1  1  0.39921000  0.20047800  0.29800500  1.0
  Li+  Li2  1  0.39921000  0.40047800  0.29800500  1.0
  Li+  Li3  1  0.39921000  0.60047800  0.29800500  1.0
  Li+  Li4  1  0.39921000  0.60047800  0.79800500  1.0
  Li+  Li5  1  0.39921000  0.80047800  0.29800500  1.0
  Li+  Li6  1  0.39921000  0.80047800  0.79800500  1.0
  Li+  Li7  1  0.00239000  0.31920200  0.69960500  1.0
  Li+  Li8  1  0.00239000  0.51920200  0.19960500  1.0
  Li+  Li9  1  0.00239000  0.91920200  0.69960500  1.0
  Li+  Li10  1  0.59601000  0.20047800  0.00119500  1.0
  Li+  Li11  1  0.59601000  0.20047800  0.50119500  1.0
  Li+  Li12  1  0.59601000  0.80047800  0.00119500  1.0
  Li+  Li13  1  0.59601000  0.80047800  0.69960500  1.0
  Li+  Li14  1  0.00239000  0.00047800  0.79800500  1.0
  Li+  Li15  1  0.00239000  0.20047800  0.29800500  1.0
  Li+  Li16  1  0.00239000  0.20047800  0.79800500  1.0
  Li+  Li17  1  0.00239000  0.60047800  0.29800500  1.0
  Li+  Li18  1  0.00239000  0.60047800  0.79800500  1.0
  Li+  Li19  1  0.00239000  0.00047800  0.69960500  1.0
  Li+  Li20  1  0.00239000  0.20047800  0.19960500  1.0
  Li+  Li21  1  0.00239000  0.40047800  0.69960500  1.0
  Li+  Li22  1  0.00239000  0.60047800  0.69960500  1.0
  Li+  Li23  1  0.00239000  0.07984200  0.29800500  1.0
  Li+  Li24  1  0.00239000  0.27984200  0.79800500  1.0
  Li+  Li25  1  0.00239000  0.47984200  0.29800500  1.0
  Li+  Li26  1  0.00239000  0.67984200  0.79800500  1.0
  Li+  Li27  1  0.00239000  0.87984200  0.79800500  1.0
  Li+  Li28  1  0.00239000  0.27984200  0.00119500  1.0
  Li+  Li29  1  0.00239000  0.47984200  0.50119500  1.0
  Li+  Li30  1  0.00239000  0.67984200  0.00119500  1.0
  Li+  Li31  1  0.00239000  0.87984200  0.00119500  1.0
  Li+  Li32  1  0.00239000  0.87984200  0.50119500  1.0
  Li+  Li33  1  0.39921000  0.00047800  0.50119500  1.0
  Li+  Li34  1  0.39921000  0.60047800  0.50119500  1.0
  Li+  Li35  1  0.39921000  0.80047800  0.50119500  1.0
  Li+  Li36  1  0.00239000  0.11920200  0.00119500  1.0
  Li+  Li37  1  0.00239000  0.11920200  0.50119500  1.0
  Li+  Li38  1  0.00239000  0.51920200  0.50119500  1.0
  Li+  Li39  1  0.59601000  0.47984200  0.50119500  1.0
  Li+  Li40  1  0.39921000  0.31920200  0.50119500  1.0
  Li+  Li41  1  0.39921000  0.51920200  0.00119500  1.0
  Li+  Li42  1  0.48190000  0.00362000  0.24095000  1.0
  Li+  Li43  1  0.01810000  0.09638000  0.74095000  1.0
  Li+  Li44  1  0.01810000  0.29638000  0.74095000  1.0
  Li+  Li45  1  0.01810000  0.49638000  0.74095000  1.0
  Li+  Li46  1  0.01810000  0.69638000  0.74095000  1.0
  Li+  Li47  1  0.01810000  0.89638000  0.24095000  1.0
  Li+  Li48  1  0.48190000  0.00362000  0.50905000  1.0
  Li+  Li49  1  0.48190000  0.20362000  0.50905000  1.0
  Li+  Li50  1  0.48190000  0.40362000  0.00905000  1.0
  Li+  Li51  1  0.48190000  0.40362000  0.50905000  1.0
  Li+  Li52  1  0.48190000  0.60362000  0.00905000  1.0
  Li+  Li53  1  0.48190000  0.60362000  0.50905000  1.0
  Li+  Li54  1  0.01810000  0.00362000  0.24095000  1.0
  Li+  Li55  1  0.01810000  0.20362000  0.24095000  1.0
  Li+  Li56  1  0.01810000  0.40362000  0.74095000  1.0
  Li+  Li57  1  0.01810000  0.80362000  0.24095000  1.0
  Li+  Li58  1  0.01810000  0.09638000  0.50905000  1.0
  Li+  Li59  1  0.01810000  0.29638000  0.50905000  1.0
  Li+  Li60  1  0.01810000  0.69638000  0.50905000  1.0
  Li+  Li61  1  0.01810000  0.89638000  0.00905000  1.0
  Li+  Li62  1  0.48190000  0.29638000  0.00905000  1.0
  Li+  Li63  1  0.48190000  0.69638000  0.00905000  1.0
  Li+  Li64  1  0.48190000  0.69638000  0.50905000  1.0
  Li+  Li65  1  0.48190000  0.89638000  0.50905000  1.0
  Si4+  Si66  1  0.50000000  0.10000000  0.75000000  1.0
  Si4+  Si67  1  0.50000000  0.30000000  0.25000000  1.0
  Si4+  Si68  1  0.50000000  0.30000000  0.75000000  1.0
  Si4+  Si69  1  0.50000000  0.70000000  0.25000000  1.0
  Si4+  Si70  1  0.50000000  0.70000000  0.75000000  1.0
  Si4+  Si71  1  0.50000000  0.90000000  0.25000000  1.0
  P5+  P72  1  0.50000000  0.10000000  0.25000000  1.0
  P5+  P73  1  0.50000000  0.50000000  0.25000000  1.0
  P5+  P74  1  0.50000000  0.50000000  0.75000000  1.0
  P5+  P75  1  0.50000000  0.90000000  0.75000000  1.0
  S2-  S1  1  0.25000000  0.05000000  0.12500000  1.0
  S2-  S1  1  0.25000000  0.05000000  0.62500000  1.0
  S2-  S1  1  0.25000000  0.25000000  0.12500000  1.0
  S2-  S1  1  0.25000000  0.25000000  0.62500000  1.0
  S2-  S1  1  0.25000000  0.45000000  0.12500000  1.0
  S2-  S1  1  0.25000000  0.45000000  0.62500000  1.0
  S2-  S1  1  0.25000000  0.65000000  0.12500000  1.0
  S2-  S1  1  0.25000000  0.65000000  0.62500000  1.0
  S2-  S1  1  0.25000000  0.85000000  0.12500000  1.0
  S2-  S1  1  0.25000000  0.85000000  0.62500000  1.0
  S2-  S3  1  0.61846000  0.02892400  0.30923000  1.0
  S2-  S3  1  0.61846000  0.02892400  0.80923000  1.0
  S2-  S3  1  0.61846000  0.22892400  0.30923000  1.0
  S2-  S3  1  0.61846000  0.22892400  0.80923000  1.0
  S2-  S3  1  0.61846000  0.42892400  0.30923000  1.0
  S2-  S3  1  0.61846000  0.42892400  0.80923000  1.0
  S2-  S3  1  0.61846000  0.62892400  0.30923000  1.0
  S2-  S3  1  0.61846000  0.62892400  0.80923000  1.0
  S2-  S3  1  0.61846000  0.82892400  0.30923000  1.0
  S2-  S3  1  0.61846000  0.82892400  0.80923000  1.0
  S2-  S3  1  0.61846000  0.12369200  0.30923000  1.0
  S2-  S3  1  0.61846000  0.12369200  0.80923000  1.0
  S2-  S3  1  0.61846000  0.32369200  0.30923000  1.0
  S2-  S3  1  0.61846000  0.32369200  0.80923000  1.0
  S2-  S3  1  0.61846000  0.52369200  0.30923000  1.0
  S2-  S3  1  0.61846000  0.52369200  0.80923000  1.0
  S2-  S3  1  0.61846000  0.72369200  0.30923000  1.0
  S2-  S3  1  0.61846000  0.72369200  0.80923000  1.0
  S2-  S3  1  0.61846000  0.92369200  0.30923000  1.0
  S2-  S3  1  0.61846000  0.92369200  0.80923000  1.0
  S2-  S3  1  0.61846000  0.12369200  0.07231000  1.0
  S2-  S3  1  0.61846000  0.12369200  0.57231000  1.0
  S2-  S3  1  0.61846000  0.32369200  0.07231000  1.0
  S2-  S3  1  0.61846000  0.32369200  0.57231000  1.0
  S2-  S3  1  0.61846000  0.52369200  0.07231000  1.0
  S2-  S3  1  0.61846000  0.52369200  0.57231000  1.0
  S2-  S3  1  0.61846000  0.72369200  0.07231000  1.0
  S2-  S3  1  0.61846000  0.72369200  0.57231000  1.0
  S2-  S3  1  0.61846000  0.92369200  0.07231000  1.0
  S2-  S3  1  0.61846000  0.92369200  0.57231000  1.0
  S2-  S3  1  0.14462000  0.12369200  0.30923000  1.0
  S2-  S3  1  0.14462000  0.12369200  0.80923000  1.0
  S2-  S3  1  0.14462000  0.32369200  0.30923000  1.0
  S2-  S3  1  0.14462000  0.32369200  0.80923000  1.0
  S2-  S3  1  0.14462000  0.52369200  0.30923000  1.0
  S2-  S3  1  0.14462000  0.52369200  0.80923000  1.0
  S2-  S3  1  0.14462000  0.72369200  0.30923000  1.0
  S2-  S3  1  0.14462000  0.72369200  0.80923000  1.0
  S2-  S3  1  0.14462000  0.92369200  0.30923000  1.0
  S2-  S3  1  0.14462000  0.92369200  0.80923000  1.0
  I-  I1  1  0.00000000  0.00000000  0.00000000  1.0
  I-  I1  1  0.00000000  0.00000000  0.50000000  1.0
  I-  I1  1  1.00000000  0.20000000  0.00000000  1.0
  I-  I1  1  1.00000000  0.20000000  0.50000000  1.0
  I-  I1  1  1.00000000  0.40000000  1.00000000  1.0
  I-  I1  1  1.00000000  0.40000000  0.50000000  1.0
  I-  I1  1  0.00000000  0.60000000  1.00000000  1.0
  I-  I1  1  0.00000000  0.60000000  0.50000000  1.0
  I-  I1  1  1.00000000  0.80000000  1.00000000  1.0
  I-  I1  1  1.00000000  0.80000000  0.50000000  1.0
