# generated using pymatgen
data_Li2TeO4
_symmetry_space_group_name_H-M   'P 1'
_cell_length_a   12.09000000
_cell_length_b   8.29000000
_cell_length_c   12.09000000
_cell_angle_alpha   90.00000000
_cell_angle_beta   90.00000000
_cell_angle_gamma   90.00000000
_symmetry_Int_Tables_number   1
_chemical_formula_structural   Li2TeO4
_chemical_formula_sum   'Li32 Te16 O64'
_cell_volume   1211.73354900
_cell_formula_units_Z   16
loop_
 _symmetry_equiv_pos_site_id
 _symmetry_equiv_pos_as_xyz
  1  'x, y, z'
loop_
 _atom_type_symbol
 _atom_type_oxidation_number
  Li+  1.0
  Te6+  6.0
  O2-  -2.0
loop_
 _atom_site_type_symbol
 _atom_site_label
 _atom_site_symmetry_multiplicity
 _atom_site_fract_x
 _atom_site_fract_y
 _atom_site_fract_z
 _atom_site_occupancy
  Li+  Li0  1  0.13000000  0.25000000  0.50000000  1.0
  Li+  Li1  1  0.13000000  0.25000000  0.00000000  1.0
  Li+  Li2  1  0.63000000  0.25000000  0.50000000  1.0
  Li+  Li3  1  0.63000000  0.25000000  0.00000000  1.0
  Li+  Li4  1  0.37000000  0.75000000  0.50000000  1.0
  Li+  Li5  1  0.37000000  0.75000000  0.00000000  1.0
  Li+  Li6  1  0.87000000  0.75000000  0.50000000  1.0
  Li+  Li7  1  0.87095659  0.75069128  0.00187044  1.0
  Li+  Li8  1  0.25000000  0.50000000  0.38000000  1.0
  Li+  Li9  1  0.25000000  0.50000000  0.88000000  1.0
  Li+  Li10  1  0.74902395  0.49433356  0.38080899  1.0
  Li+  Li11  1  0.75000000  0.50000000  0.88000000  1.0
  Li+  Li12  1  0.25000000  0.00000000  0.62000000  1.0
  Li+  Li13  1  0.25000000  0.00000000  0.12000000  1.0
  Li+  Li14  1  0.74709226  0.00113144  0.61296811  1.0
  Li+  Li15  1  0.75000000  0.00000000  0.12000000  1.0
  Li+  Li16  1  0.12000000  0.62500000  0.63000000  1.0
  Li+  Li17  1  0.12000000  0.62500000  0.13000000  1.0
  Li+  Li18  1  0.62000000  0.62500000  0.63000000  1.0
  Li+  Li19  1  0.62000000  0.62500000  0.13000000  1.0
  Li+  Li20  1  0.38000000  0.12500000  0.37000000  1.0
  Li+  Li21  1  0.38000000  0.12500000  0.87000000  1.0
  Li+  Li22  1  0.88000000  0.12500000  0.37000000  1.0
  Li+  Li23  1  0.88000000  0.12500000  0.87000000  1.0
  Li+  Li24  1  0.12173483  0.87237153  0.36946425  1.0
  Li+  Li25  1  0.12000000  0.87500000  0.87000000  1.0
  Li+  Li26  1  0.62000000  0.87500000  0.37000000  1.0
  Li+  Li27  1  0.62000000  0.87500000  0.87000000  1.0
  Li+  Li28  1  0.37643458  0.37679220  0.63668393  1.0
  Li+  Li29  1  0.37996740  0.37466973  0.12860315  1.0
  Li+  Li30  1  0.88000000  0.37500000  0.63000000  1.0
  Li+  Li31  1  0.88000000  0.37500000  0.13000000  1.0
  Te6+  Te32  1  0.13430000  0.25000000  0.75000000  1.0
  Te6+  Te33  1  0.13430000  0.25000000  0.25000000  1.0
  Te6+  Te34  1  0.63430000  0.25000000  0.75000000  1.0
  Te6+  Te35  1  0.63430000  0.25000000  0.25000000  1.0
  Te6+  Te36  1  0.36570000  0.75000000  0.75000000  1.0
  Te6+  Te37  1  0.36570000  0.75000000  0.25000000  1.0
  Te6+  Te38  1  0.86788853  0.75579295  0.74645271  1.0
  Te6+  Te39  1  0.86570000  0.75000000  0.25000000  1.0
  Te6+  Te40  1  0.00000000  0.50000000  0.38430000  1.0
  Te6+  Te41  1  0.00000000  0.50000000  0.88430000  1.0
  Te6+  Te42  1  0.50000000  0.50000000  0.38430000  1.0
  Te6+  Te43  1  0.50000000  0.50000000  0.88430000  1.0
  Te6+  Te44  1  0.00000000  0.00000000  0.61570000  1.0
  Te6+  Te45  1  0.99738453  0.00203151  0.11489246  1.0
  Te6+  Te46  1  0.50000000  0.00000000  0.61570000  1.0
  Te6+  Te47  1  0.50000000  0.00000000  0.11570000  1.0
  O2-  O48  1  0.00900000  0.23100000  0.63750000  1.0
  O2-  O49  1  0.00900000  0.23100000  0.13750000  1.0
  O2-  O50  1  0.50900000  0.23100000  0.63750000  1.0
  O2-  O51  1  0.50900000  0.23100000  0.13750000  1.0
  O2-  O52  1  0.49100000  0.73100000  0.36250000  1.0
  O2-  O53  1  0.49100000  0.73100000  0.86250000  1.0
  O2-  O54  1  0.99239616  0.73395381  0.36176232  1.0
  O2-  O55  1  0.99100000  0.73100000  0.86250000  1.0
  O2-  O56  1  0.11097962  0.48093723  0.26090068  1.0
  O2-  O57  1  0.11250000  0.48100000  0.75900000  1.0
  O2-  O58  1  0.61160207  0.48299171  0.25739827  1.0
  O2-  O59  1  0.61250000  0.48100000  0.75900000  1.0
  O2-  O60  1  0.38772666  0.98200306  0.73996669  1.0
  O2-  O61  1  0.38750000  0.98100000  0.24100000  1.0
  O2-  O62  1  0.88750000  0.98100000  0.74100000  1.0
  O2-  O63  1  0.88750000  0.98100000  0.24100000  1.0
  O2-  O64  1  0.00900000  0.26900000  0.36250000  1.0
  O2-  O65  1  0.00900000  0.26900000  0.86250000  1.0
  O2-  O66  1  0.50900000  0.26900000  0.36250000  1.0
  O2-  O67  1  0.50721922  0.27483585  0.85956073  1.0
  O2-  O68  1  0.49100000  0.76900000  0.63750000  1.0
  O2-  O69  1  0.49123372  0.77046174  0.13614742  1.0
  O2-  O70  1  0.99100000  0.76900000  0.63750000  1.0
  O2-  O71  1  0.99100000  0.76900000  0.13750000  1.0
  O2-  O72  1  0.38750000  0.51900000  0.25900000  1.0
  O2-  O73  1  0.38750000  0.51900000  0.75900000  1.0
  O2-  O74  1  0.88750000  0.51900000  0.25900000  1.0
  O2-  O75  1  0.88750000  0.51900000  0.75900000  1.0
  O2-  O76  1  0.11250000  0.01900000  0.74100000  1.0
  O2-  O77  1  0.11617957  0.01763568  0.23895295  1.0
  O2-  O78  1  0.61243778  0.01480635  0.74394286  1.0
  O2-  O79  1  0.61250000  0.01900000  0.24100000  1.0
  O2-  O80  1  0.23150000  0.31600000  0.63400000  1.0
  O2-  O81  1  0.23150000  0.31600000  0.13400000  1.0
  O2-  O82  1  0.73150000  0.31600000  0.63400000  1.0
  O2-  O83  1  0.73150000  0.31600000  0.13400000  1.0
  O2-  O84  1  0.26629027  0.81308600  0.36439144  1.0
  O2-  O85  1  0.27140704  0.81276455  0.86236099  1.0
  O2-  O86  1  0.76850000  0.81600000  0.36600000  1.0
  O2-  O87  1  0.76850000  0.81600000  0.86600000  1.0
  O2-  O88  1  0.11600000  0.56600000  0.48150000  1.0
  O2-  O89  1  0.11600000  0.56600000  0.98150000  1.0
  O2-  O90  1  0.61469547  0.56766270  0.48752009  1.0
  O2-  O91  1  0.61600000  0.56600000  0.98150000  1.0
  O2-  O92  1  0.38400028  0.06781263  0.52024781  1.0
  O2-  O93  1  0.38400000  0.06600000  0.01850000  1.0
  O2-  O94  1  0.88400000  0.06600000  0.51850000  1.0
  O2-  O95  1  0.88400000  0.06600000  0.01850000  1.0
  O2-  O96  1  0.23373428  0.18196659  0.36587858  1.0
  O2-  O97  1  0.23445502  0.18500874  0.86480381  1.0
  O2-  O98  1  0.73150000  0.18400000  0.36600000  1.0
  O2-  O99  1  0.73152545  0.18369086  0.86255610  1.0
  O2-  O100  1  0.26359858  0.68501073  0.63955388  1.0
  O2-  O101  1  0.26799272  0.68385927  0.13215520  1.0
  O2-  O102  1  0.76850000  0.68400000  0.63400000  1.0
  O2-  O103  1  0.76850000  0.68400000  0.13400000  1.0
  O2-  O104  1  0.37938566  0.43169367  0.47944213  1.0
  O2-  O105  1  0.38400000  0.43400000  0.98150000  1.0
  O2-  O106  1  0.88400000  0.43400000  0.48150000  1.0
  O2-  O107  1  0.88400000  0.43400000  0.98150000  1.0
  O2-  O108  1  0.11600000  0.93400000  0.51850000  1.0
  O2-  O109  1  0.11332548  0.93503138  0.01639451  1.0
  O2-  O110  1  0.61844372  0.93193333  0.52124302  1.0
  O2-  O111  1  0.61600000  0.93400000  0.01850000  1.0
