# generated using pymatgen
data_Li2TeO4
_symmetry_space_group_name_H-M   'P 1'
_cell_length_a   12.12180175
_cell_length_b   12.12180175
_cell_length_c   8.31180616
_cell_angle_alpha   90.00000000
_cell_angle_beta   90.00000000
_cell_angle_gamma   90.00000000
_symmetry_Int_Tables_number   1
_chemical_formula_structural   Li2TeO4
_chemical_formula_sum   'Li32 Te16 O64'
_cell_volume   1221.32081909
_cell_formula_units_Z   16
loop_
 _symmetry_equiv_pos_site_id
 _symmetry_equiv_pos_as_xyz
  1  'x, y, z'
loop_
 _atom_type_symbol
 _atom_type_oxidation_number
  Li+  1.0
  Te6+  6.0
  O2-  -2.0
loop_
 _atom_site_type_symbol
 _atom_site_label
 _atom_site_symmetry_multiplicity
 _atom_site_fract_x
 _atom_site_fract_y
 _atom_site_fract_z
 _atom_site_occupancy
  Li+  Li0  1  0.75000000  0.53666667  0.75000000  1.0
  Li+  Li1  1  0.25000000  0.53666667  0.75000000  1.0
  Li+  Li2  1  0.75000000  0.03666667  0.75000000  1.0
  Li+  Li3  1  0.25000000  0.03666667  0.75000000  1.0
  Li+  Li4  1  0.75000000  0.29666667  0.25000000  1.0
  Li+  Li5  1  0.25000000  0.29666667  0.25000000  1.0
  Li+  Li6  1  0.75000000  0.79666667  0.25000000  1.0
  Li+  Li7  1  0.25000000  0.79666667  0.25000000  1.0
  Li+  Li8  1  0.63000000  0.41666667  0.50000000  1.0
  Li+  Li9  1  0.13000000  0.41666667  0.50000000  1.0
  Li+  Li10  1  0.63000000  0.91666667  0.50000000  1.0
  Li+  Li11  1  0.13000000  0.91666667  0.50000000  1.0
  Li+  Li12  1  0.87000000  0.41666667  0.00000000  1.0
  Li+  Li13  1  0.37000000  0.41666667  0.00000000  1.0
  Li+  Li14  1  0.87000000  0.91666667  0.00000000  1.0
  Li+  Li15  1  0.37000000  0.91666667  0.00000000  1.0
  Li+  Li16  1  0.88000000  0.54666667  0.37500000  1.0
  Li+  Li17  1  0.38000000  0.54666667  0.37500000  1.0
  Li+  Li18  1  0.88000000  0.04666667  0.37500000  1.0
  Li+  Li19  1  0.38000000  0.04666667  0.37500000  1.0
  Li+  Li20  1  0.62000000  0.28666667  0.87500000  1.0
  Li+  Li21  1  0.12000000  0.28666667  0.87500000  1.0
  Li+  Li22  1  0.62000000  0.78666667  0.87500000  1.0
  Li+  Li23  1  0.12000000  0.78666667  0.87500000  1.0
  Li+  Li24  1  0.62000000  0.54666667  0.12500000  1.0
  Li+  Li25  1  0.12000000  0.54666667  0.12500000  1.0
  Li+  Li26  1  0.62000000  0.04666667  0.12500000  1.0
  Li+  Li27  1  0.12000000  0.04666667  0.12500000  1.0
  Li+  Li28  1  0.88000000  0.28666667  0.62500000  1.0
  Li+  Li29  1  0.38000000  0.28666667  0.62500000  1.0
  Li+  Li30  1  0.88000000  0.78666667  0.62500000  1.0
  Li+  Li31  1  0.38000000  0.78666667  0.62500000  1.0
  Te6+  Te32  1  0.00000000  0.53236667  0.75000000  1.0
  Te6+  Te33  1  0.50000000  0.53236667  0.75000000  1.0
  Te6+  Te34  1  0.00000000  0.03236667  0.75000000  1.0
  Te6+  Te35  1  0.50000000  0.03236667  0.75000000  1.0
  Te6+  Te36  1  0.00000000  0.30096667  0.25000000  1.0
  Te6+  Te37  1  0.50000000  0.30096667  0.25000000  1.0
  Te6+  Te38  1  0.00000000  0.80096667  0.25000000  1.0
  Te6+  Te39  1  0.50000000  0.80096667  0.25000000  1.0
  Te6+  Te40  1  0.63430000  0.66666667  0.50000000  1.0
  Te6+  Te41  1  0.13430000  0.66666667  0.50000000  1.0
  Te6+  Te42  1  0.63430000  0.16666667  0.50000000  1.0
  Te6+  Te43  1  0.13430000  0.16666667  0.50000000  1.0
  Te6+  Te44  1  0.86570000  0.66666667  0.00000000  1.0
  Te6+  Te45  1  0.36570000  0.66666667  0.00000000  1.0
  Te6+  Te46  1  0.86570000  0.16666667  0.00000000  1.0
  Te6+  Te47  1  0.36570000  0.16666667  0.00000000  1.0
  O2-  O48  1  0.88750000  0.65766667  0.76900000  1.0
  O2-  O49  1  0.38750000  0.65766667  0.76900000  1.0
  O2-  O50  1  0.88750000  0.15766667  0.76900000  1.0
  O2-  O51  1  0.38750000  0.15766667  0.76900000  1.0
  O2-  O52  1  0.61250000  0.17566667  0.26900000  1.0
  O2-  O53  1  0.11250000  0.17566667  0.26900000  1.0
  O2-  O54  1  0.61250000  0.67566667  0.26900000  1.0
  O2-  O55  1  0.11250000  0.67566667  0.26900000  1.0
  O2-  O56  1  0.50900000  0.55416667  0.51900000  1.0
  O2-  O57  1  0.00900000  0.55416667  0.51900000  1.0
  O2-  O58  1  0.50900000  0.05416667  0.51900000  1.0
  O2-  O59  1  0.00900000  0.05416667  0.51900000  1.0
  O2-  O60  1  0.99100000  0.27916667  0.01900000  1.0
  O2-  O61  1  0.49100000  0.27916667  0.01900000  1.0
  O2-  O62  1  0.99100000  0.77916667  0.01900000  1.0
  O2-  O63  1  0.49100000  0.77916667  0.01900000  1.0
  O2-  O64  1  0.61250000  0.65766667  0.73100000  1.0
  O2-  O65  1  0.11250000  0.65766667  0.73100000  1.0
  O2-  O66  1  0.61250000  0.15766667  0.73100000  1.0
  O2-  O67  1  0.11250000  0.15766667  0.73100000  1.0
  O2-  O68  1  0.88750000  0.17566667  0.23100000  1.0
  O2-  O69  1  0.38750000  0.17566667  0.23100000  1.0
  O2-  O70  1  0.88750000  0.67566667  0.23100000  1.0
  O2-  O71  1  0.38750000  0.67566667  0.23100000  1.0
  O2-  O72  1  0.50900000  0.27916667  0.48100000  1.0
  O2-  O73  1  0.00900000  0.27916667  0.48100000  1.0
  O2-  O74  1  0.50900000  0.77916667  0.48100000  1.0
  O2-  O75  1  0.00900000  0.77916667  0.48100000  1.0
  O2-  O76  1  0.99100000  0.55416667  0.98100000  1.0
  O2-  O77  1  0.49100000  0.55416667  0.98100000  1.0
  O2-  O78  1  0.99100000  0.05416667  0.98100000  1.0
  O2-  O79  1  0.49100000  0.05416667  0.98100000  1.0
  O2-  O80  1  0.88400000  0.43516667  0.68400000  1.0
  O2-  O81  1  0.38400000  0.43516667  0.68400000  1.0
  O2-  O82  1  0.88400000  0.93516667  0.68400000  1.0
  O2-  O83  1  0.38400000  0.93516667  0.68400000  1.0
  O2-  O84  1  0.61600000  0.39816667  0.18400000  1.0
  O2-  O85  1  0.11600000  0.39816667  0.18400000  1.0
  O2-  O86  1  0.61600000  0.89816667  0.18400000  1.0
  O2-  O87  1  0.11600000  0.89816667  0.18400000  1.0
  O2-  O88  1  0.73150000  0.55066667  0.43400000  1.0
  O2-  O89  1  0.23150000  0.55066667  0.43400000  1.0
  O2-  O90  1  0.73150000  0.05066667  0.43400000  1.0
  O2-  O91  1  0.23150000  0.05066667  0.43400000  1.0
  O2-  O92  1  0.76850000  0.28266667  0.93400000  1.0
  O2-  O93  1  0.26850000  0.28266667  0.93400000  1.0
  O2-  O94  1  0.76850000  0.78266667  0.93400000  1.0
  O2-  O95  1  0.26850000  0.78266667  0.93400000  1.0
  O2-  O96  1  0.61600000  0.43516667  0.81600000  1.0
  O2-  O97  1  0.11600000  0.43516667  0.81600000  1.0
  O2-  O98  1  0.61600000  0.93516667  0.81600000  1.0
  O2-  O99  1  0.11600000  0.93516667  0.81600000  1.0
  O2-  O100  1  0.88400000  0.39816667  0.31600000  1.0
  O2-  O101  1  0.38400000  0.39816667  0.31600000  1.0
  O2-  O102  1  0.88400000  0.89816667  0.31600000  1.0
  O2-  O103  1  0.38400000  0.89816667  0.31600000  1.0
  O2-  O104  1  0.73150000  0.28266667  0.56600000  1.0
  O2-  O105  1  0.23150000  0.28266667  0.56600000  1.0
  O2-  O106  1  0.73150000  0.78266667  0.56600000  1.0
  O2-  O107  1  0.23150000  0.78266667  0.56600000  1.0
  O2-  O108  1  0.76850000  0.55066667  0.06600000  1.0
  O2-  O109  1  0.26850000  0.55066667  0.06600000  1.0
  O2-  O110  1  0.76850000  0.05066667  0.06600000  1.0
  O2-  O111  1  0.26850000  0.05066667  0.06600000  1.0
