# generated using pymatgen
data_Li2TeO4
_symmetry_space_group_name_H-M   'P 1'
_cell_length_a   12.09000000
_cell_length_b   12.09000000
_cell_length_c   8.29000000
_cell_angle_alpha   90.00000000
_cell_angle_beta   90.00000000
_cell_angle_gamma   90.00000000
_symmetry_Int_Tables_number   1
_chemical_formula_structural   Li2TeO4
_chemical_formula_sum   'Li32 Te16 O64'
_cell_volume   1211.73354900
_cell_formula_units_Z   16
loop_
 _symmetry_equiv_pos_site_id
 _symmetry_equiv_pos_as_xyz
  1  'x, y, z'
loop_
 _atom_type_symbol
 _atom_type_oxidation_number
  Li+  1.0
  Te6+  6.0
  O2-  -2.0
loop_
 _atom_site_type_symbol
 _atom_site_label
 _atom_site_symmetry_multiplicity
 _atom_site_fract_x
 _atom_site_fract_y
 _atom_site_fract_z
 _atom_site_occupancy
  Li+  Li1  1  0.13000000  0.25000000  0.75000000  1.0
  Li+  Li1  1  0.13000000  0.75000000  0.75000000  1.0
  Li+  Li1  1  0.63000000  0.25000000  0.75000000  1.0
  Li+  Li1  1  0.63000000  0.75000000  0.75000000  1.0
  Li+  Li1  1  0.37000000  0.25000000  0.25000000  1.0
  Li+  Li1  1  0.37000000  0.75000000  0.25000000  1.0
  Li+  Li1  1  0.87000000  0.25000000  0.25000000  1.0
  Li+  Li1  1  0.87000000  0.75000000  0.25000000  1.0
  Li+  Li1  1  0.25000000  0.37000000  0.50000000  1.0
  Li+  Li1  1  0.25000000  0.87000000  0.50000000  1.0
  Li+  Li1  1  0.75000000  0.37000000  0.50000000  1.0
  Li+  Li1  1  0.75000000  0.87000000  0.50000000  1.0
  Li+  Li1  1  0.25000000  0.13000000  0.00000000  1.0
  Li+  Li1  1  0.25000000  0.63000000  0.00000000  1.0
  Li+  Li1  1  0.75000000  0.13000000  0.00000000  1.0
  Li+  Li1  1  0.75000000  0.63000000  0.00000000  1.0
  Li+  Li2  1  0.12000000  0.12000000  0.37500000  1.0
  Li+  Li2  1  0.12000000  0.62000000  0.37500000  1.0
  Li+  Li2  1  0.62000000  0.12000000  0.37500000  1.0
  Li+  Li2  1  0.62000000  0.62000000  0.37500000  1.0
  Li+  Li2  1  0.38000000  0.38000000  0.87500000  1.0
  Li+  Li2  1  0.38000000  0.88000000  0.87500000  1.0
  Li+  Li2  1  0.88000000  0.38000000  0.87500000  1.0
  Li+  Li2  1  0.88000000  0.88000000  0.87500000  1.0
  Li+  Li2  1  0.12000000  0.38000000  0.12500000  1.0
  Li+  Li2  1  0.12000000  0.88000000  0.12500000  1.0
  Li+  Li2  1  0.62000000  0.38000000  0.12500000  1.0
  Li+  Li2  1  0.62000000  0.88000000  0.12500000  1.0
  Li+  Li2  1  0.38000000  0.12000000  0.62500000  1.0
  Li+  Li2  1  0.38000000  0.62000000  0.62500000  1.0
  Li+  Li2  1  0.88000000  0.12000000  0.62500000  1.0
  Li+  Li2  1  0.88000000  0.62000000  0.62500000  1.0
  Te6+  Te1  1  0.13430000  0.00000000  0.75000000  1.0
  Te6+  Te1  1  0.13430000  0.50000000  0.75000000  1.0
  Te6+  Te1  1  0.63430000  0.00000000  0.75000000  1.0
  Te6+  Te1  1  0.63430000  0.50000000  0.75000000  1.0
  Te6+  Te1  1  0.36570000  0.00000000  0.25000000  1.0
  Te6+  Te1  1  0.36570000  0.50000000  0.25000000  1.0
  Te6+  Te1  1  0.86570000  0.00000000  0.25000000  1.0
  Te6+  Te1  1  0.86570000  0.50000000  0.25000000  1.0
  Te6+  Te1  1  0.00000000  0.36570000  0.50000000  1.0
  Te6+  Te1  1  0.00000000  0.86570000  0.50000000  1.0
  Te6+  Te1  1  0.50000000  0.36570000  0.50000000  1.0
  Te6+  Te1  1  0.50000000  0.86570000  0.50000000  1.0
  Te6+  Te1  1  0.00000000  0.13430000  0.00000000  1.0
  Te6+  Te1  1  0.00000000  0.63430000  0.00000000  1.0
  Te6+  Te1  1  0.50000000  0.13430000  0.00000000  1.0
  Te6+  Te1  1  0.50000000  0.63430000  0.00000000  1.0
  O2-  O1  1  0.00900000  0.11250000  0.76900000  1.0
  O2-  O1  1  0.00900000  0.61250000  0.76900000  1.0
  O2-  O1  1  0.50900000  0.11250000  0.76900000  1.0
  O2-  O1  1  0.50900000  0.61250000  0.76900000  1.0
  O2-  O1  1  0.49100000  0.38750000  0.26900000  1.0
  O2-  O1  1  0.49100000  0.88750000  0.26900000  1.0
  O2-  O1  1  0.99100000  0.38750000  0.26900000  1.0
  O2-  O1  1  0.99100000  0.88750000  0.26900000  1.0
  O2-  O1  1  0.11250000  0.49100000  0.51900000  1.0
  O2-  O1  1  0.11250000  0.99100000  0.51900000  1.0
  O2-  O1  1  0.61250000  0.49100000  0.51900000  1.0
  O2-  O1  1  0.61250000  0.99100000  0.51900000  1.0
  O2-  O1  1  0.38750000  0.00900000  0.01900000  1.0
  O2-  O1  1  0.38750000  0.50900000  0.01900000  1.0
  O2-  O1  1  0.88750000  0.00900000  0.01900000  1.0
  O2-  O1  1  0.88750000  0.50900000  0.01900000  1.0
  O2-  O1  1  0.00900000  0.38750000  0.73100000  1.0
  O2-  O1  1  0.00900000  0.88750000  0.73100000  1.0
  O2-  O1  1  0.50900000  0.38750000  0.73100000  1.0
  O2-  O1  1  0.50900000  0.88750000  0.73100000  1.0
  O2-  O1  1  0.49100000  0.11250000  0.23100000  1.0
  O2-  O1  1  0.49100000  0.61250000  0.23100000  1.0
  O2-  O1  1  0.99100000  0.11250000  0.23100000  1.0
  O2-  O1  1  0.99100000  0.61250000  0.23100000  1.0
  O2-  O1  1  0.38750000  0.49100000  0.48100000  1.0
  O2-  O1  1  0.38750000  0.99100000  0.48100000  1.0
  O2-  O1  1  0.88750000  0.49100000  0.48100000  1.0
  O2-  O1  1  0.88750000  0.99100000  0.48100000  1.0
  O2-  O1  1  0.11250000  0.00900000  0.98100000  1.0
  O2-  O1  1  0.11250000  0.50900000  0.98100000  1.0
  O2-  O1  1  0.61250000  0.00900000  0.98100000  1.0
  O2-  O1  1  0.61250000  0.50900000  0.98100000  1.0
  O2-  O2  1  0.23150000  0.11600000  0.68400000  1.0
  O2-  O2  1  0.23150000  0.61600000  0.68400000  1.0
  O2-  O2  1  0.73150000  0.11600000  0.68400000  1.0
  O2-  O2  1  0.73150000  0.61600000  0.68400000  1.0
  O2-  O2  1  0.26850000  0.38400000  0.18400000  1.0
  O2-  O2  1  0.26850000  0.88400000  0.18400000  1.0
  O2-  O2  1  0.76850000  0.38400000  0.18400000  1.0
  O2-  O2  1  0.76850000  0.88400000  0.18400000  1.0
  O2-  O2  1  0.11600000  0.26850000  0.43400000  1.0
  O2-  O2  1  0.11600000  0.76850000  0.43400000  1.0
  O2-  O2  1  0.61600000  0.26850000  0.43400000  1.0
  O2-  O2  1  0.61600000  0.76850000  0.43400000  1.0
  O2-  O2  1  0.38400000  0.23150000  0.93400000  1.0
  O2-  O2  1  0.38400000  0.73150000  0.93400000  1.0
  O2-  O2  1  0.88400000  0.23150000  0.93400000  1.0
  O2-  O2  1  0.88400000  0.73150000  0.93400000  1.0
  O2-  O2  1  0.23150000  0.38400000  0.81600000  1.0
  O2-  O2  1  0.23150000  0.88400000  0.81600000  1.0
  O2-  O2  1  0.73150000  0.38400000  0.81600000  1.0
  O2-  O2  1  0.73150000  0.88400000  0.81600000  1.0
  O2-  O2  1  0.26850000  0.11600000  0.31600000  1.0
  O2-  O2  1  0.26850000  0.61600000  0.31600000  1.0
  O2-  O2  1  0.76850000  0.11600000  0.31600000  1.0
  O2-  O2  1  0.76850000  0.61600000  0.31600000  1.0
  O2-  O2  1  0.38400000  0.26850000  0.56600000  1.0
  O2-  O2  1  0.38400000  0.76850000  0.56600000  1.0
  O2-  O2  1  0.88400000  0.26850000  0.56600000  1.0
  O2-  O2  1  0.88400000  0.76850000  0.56600000  1.0
  O2-  O2  1  0.11600000  0.23150000  0.06600000  1.0
  O2-  O2  1  0.11600000  0.73150000  0.06600000  1.0
  O2-  O2  1  0.61600000  0.23150000  0.06600000  1.0
  O2-  O2  1  0.61600000  0.73150000  0.06600000  1.0
