# generated using pymatgen
data_Li6Cu(B2O5)2
_symmetry_space_group_name_H-M   'P 1'
_cell_length_a   9.93654000
_cell_length_b   20.04816000
_cell_length_c   9.27858000
_cell_angle_alpha   78.84430000
_cell_angle_beta   89.75960000
_cell_angle_gamma   86.61430000
_symmetry_Int_Tables_number   1
_chemical_formula_structural   Li6Cu(B2O5)2
_chemical_formula_sum   'Li54 Cu9 B36 O90'
_cell_volume   1810.24023166
_cell_formula_units_Z   9
loop_
 _symmetry_equiv_pos_site_id
 _symmetry_equiv_pos_as_xyz
  1  'x, y, z'
loop_
 _atom_type_symbol
 _atom_type_oxidation_number
  Li+  1.0
  Cu2+  2.0
  B3+  3.0
  O2-  -2.0
loop_
 _atom_site_type_symbol
 _atom_site_label
 _atom_site_symmetry_multiplicity
 _atom_site_fract_x
 _atom_site_fract_y
 _atom_site_fract_z
 _atom_site_occupancy
  Li+  Li1  1  0.14133333  0.26296667  0.53100000  1.0
  Li+  Li1  1  0.14133333  0.59630000  0.53100000  1.0
  Li+  Li1  1  0.14133333  0.92963333  0.53100000  1.0
  Li+  Li1  1  0.47466667  0.26296667  0.53100000  1.0
  Li+  Li1  1  0.47466667  0.59630000  0.53100000  1.0
  Li+  Li1  1  0.47466667  0.92963333  0.53100000  1.0
  Li+  Li1  1  0.80800000  0.26296667  0.53100000  1.0
  Li+  Li1  1  0.80800000  0.59630000  0.53100000  1.0
  Li+  Li1  1  0.80800000  0.92963333  0.53100000  1.0
  Li+  Li1  1  0.19200000  0.07036667  0.46900000  1.0
  Li+  Li1  1  0.19200000  0.40370000  0.46900000  1.0
  Li+  Li1  1  0.19200000  0.73703333  0.46900000  1.0
  Li+  Li1  1  0.52533333  0.07036667  0.46900000  1.0
  Li+  Li1  1  0.52533333  0.40370000  0.46900000  1.0
  Li+  Li1  1  0.52533333  0.73703333  0.46900000  1.0
  Li+  Li1  1  0.85866667  0.07036667  0.46900000  1.0
  Li+  Li1  1  0.85866667  0.40370000  0.46900000  1.0
  Li+  Li1  1  0.85866667  0.73703333  0.46900000  1.0
  Li+  Li2  1  0.32366667  0.17433333  0.64690000  1.0
  Li+  Li2  1  0.32366667  0.50766667  0.64690000  1.0
  Li+  Li2  1  0.32366667  0.84100000  0.64690000  1.0
  Li+  Li2  1  0.65700000  0.17433333  0.64690000  1.0
  Li+  Li2  1  0.65700000  0.50766667  0.64690000  1.0
  Li+  Li2  1  0.65700000  0.84100000  0.64690000  1.0
  Li+  Li2  1  0.99033333  0.17433333  0.64690000  1.0
  Li+  Li2  1  0.99033333  0.50766667  0.64690000  1.0
  Li+  Li2  1  0.99033333  0.84100000  0.64690000  1.0
  Li+  Li2  1  0.00966667  0.15900000  0.35310000  1.0
  Li+  Li2  1  0.00966667  0.49233333  0.35310000  1.0
  Li+  Li2  1  0.00966667  0.82566667  0.35310000  1.0
  Li+  Li2  1  0.34300000  0.15900000  0.35310000  1.0
  Li+  Li2  1  0.34300000  0.49233333  0.35310000  1.0
  Li+  Li2  1  0.34300000  0.82566667  0.35310000  1.0
  Li+  Li2  1  0.67633333  0.15900000  0.35310000  1.0
  Li+  Li2  1  0.67633333  0.49233333  0.35310000  1.0
  Li+  Li2  1  0.67633333  0.82566667  0.35310000  1.0
  Li+  Li3  1  0.17100000  0.11813333  0.87530000  1.0
  Li+  Li3  1  0.17100000  0.45146667  0.87530000  1.0
  Li+  Li3  1  0.17100000  0.78480000  0.87530000  1.0
  Li+  Li3  1  0.50433333  0.11813333  0.87530000  1.0
  Li+  Li3  1  0.50433333  0.45146667  0.87530000  1.0
  Li+  Li3  1  0.50433333  0.78480000  0.87530000  1.0
  Li+  Li3  1  0.83766667  0.11813333  0.87530000  1.0
  Li+  Li3  1  0.83766667  0.45146667  0.87530000  1.0
  Li+  Li3  1  0.83766667  0.78480000  0.87530000  1.0
  Li+  Li3  1  0.16233333  0.21520000  0.12470000  1.0
  Li+  Li3  1  0.16233333  0.54853333  0.12470000  1.0
  Li+  Li3  1  0.16233333  0.88186667  0.12470000  1.0
  Li+  Li3  1  0.49566667  0.21520000  0.12470000  1.0
  Li+  Li3  1  0.49566667  0.54853333  0.12470000  1.0
  Li+  Li3  1  0.49566667  0.88186667  0.12470000  1.0
  Li+  Li3  1  0.82900000  0.21520000  0.12470000  1.0
  Li+  Li3  1  0.82900000  0.54853333  0.12470000  1.0
  Li+  Li3  1  0.82900000  0.88186667  0.12470000  1.0
  Cu2+  Cu1  1  0.00000000  0.00000000  0.00000000  1.0
  Cu2+  Cu1  1  0.00000000  0.33333333  0.00000000  1.0
  Cu2+  Cu1  1  0.00000000  0.66666667  0.00000000  1.0
  Cu2+  Cu1  1  0.33333333  0.00000000  0.00000000  1.0
  Cu2+  Cu1  1  0.33333333  0.33333333  0.00000000  1.0
  Cu2+  Cu1  1  0.33333333  0.66666667  0.00000000  1.0
  Cu2+  Cu1  1  0.66666667  0.00000000  0.00000000  1.0
  Cu2+  Cu1  1  0.66666667  0.33333333  0.00000000  1.0
  Cu2+  Cu1  1  0.66666667  0.66666667  0.00000000  1.0
  B3+  B1  1  0.12830000  0.26003333  0.78960000  1.0
  B3+  B1  1  0.12830000  0.59336667  0.78960000  1.0
  B3+  B1  1  0.12830000  0.92670000  0.78960000  1.0
  B3+  B1  1  0.46163333  0.26003333  0.78960000  1.0
  B3+  B1  1  0.46163333  0.59336667  0.78960000  1.0
  B3+  B1  1  0.46163333  0.92670000  0.78960000  1.0
  B3+  B1  1  0.79496667  0.26003333  0.78960000  1.0
  B3+  B1  1  0.79496667  0.59336667  0.78960000  1.0
  B3+  B1  1  0.79496667  0.92670000  0.78960000  1.0
  B3+  B1  1  0.20503333  0.07330000  0.21040000  1.0
  B3+  B1  1  0.20503333  0.40663333  0.21040000  1.0
  B3+  B1  1  0.20503333  0.73996667  0.21040000  1.0
  B3+  B1  1  0.53836667  0.07330000  0.21040000  1.0
  B3+  B1  1  0.53836667  0.40663333  0.21040000  1.0
  B3+  B1  1  0.53836667  0.73996667  0.21040000  1.0
  B3+  B1  1  0.87170000  0.07330000  0.21040000  1.0
  B3+  B1  1  0.87170000  0.40663333  0.21040000  1.0
  B3+  B1  1  0.87170000  0.73996667  0.21040000  1.0
  B3+  B2  1  0.04046667  0.04993333  0.68650000  1.0
  B3+  B2  1  0.04046667  0.38326667  0.68650000  1.0
  B3+  B2  1  0.04046667  0.71660000  0.68650000  1.0
  B3+  B2  1  0.37380000  0.04993333  0.68650000  1.0
  B3+  B2  1  0.37380000  0.38326667  0.68650000  1.0
  B3+  B2  1  0.37380000  0.71660000  0.68650000  1.0
  B3+  B2  1  0.70713333  0.04993333  0.68650000  1.0
  B3+  B2  1  0.70713333  0.38326667  0.68650000  1.0
  B3+  B2  1  0.70713333  0.71660000  0.68650000  1.0
  B3+  B2  1  0.29286667  0.28340000  0.31350000  1.0
  B3+  B2  1  0.29286667  0.61673333  0.31350000  1.0
  B3+  B2  1  0.29286667  0.95006667  0.31350000  1.0
  B3+  B2  1  0.62620000  0.28340000  0.31350000  1.0
  B3+  B2  1  0.62620000  0.61673333  0.31350000  1.0
  B3+  B2  1  0.62620000  0.95006667  0.31350000  1.0
  B3+  B2  1  0.95953333  0.28340000  0.31350000  1.0
  B3+  B2  1  0.95953333  0.61673333  0.31350000  1.0
  B3+  B2  1  0.95953333  0.95006667  0.31350000  1.0
  O2-  O1  1  0.11800000  0.26426667  0.93130000  1.0
  O2-  O1  1  0.11800000  0.59760000  0.93130000  1.0
  O2-  O1  1  0.11800000  0.93093333  0.93130000  1.0
  O2-  O1  1  0.45133333  0.26426667  0.93130000  1.0
  O2-  O1  1  0.45133333  0.59760000  0.93130000  1.0
  O2-  O1  1  0.45133333  0.93093333  0.93130000  1.0
  O2-  O1  1  0.78466667  0.26426667  0.93130000  1.0
  O2-  O1  1  0.78466667  0.59760000  0.93130000  1.0
  O2-  O1  1  0.78466667  0.93093333  0.93130000  1.0
  O2-  O1  1  0.21533333  0.06906667  0.06870000  1.0
  O2-  O1  1  0.21533333  0.40240000  0.06870000  1.0
  O2-  O1  1  0.21533333  0.73573333  0.06870000  1.0
  O2-  O1  1  0.54866667  0.06906667  0.06870000  1.0
  O2-  O1  1  0.54866667  0.40240000  0.06870000  1.0
  O2-  O1  1  0.54866667  0.73573333  0.06870000  1.0
  O2-  O1  1  0.88200000  0.06906667  0.06870000  1.0
  O2-  O1  1  0.88200000  0.40240000  0.06870000  1.0
  O2-  O1  1  0.88200000  0.73573333  0.06870000  1.0
  O2-  O2  1  0.00963333  0.06766667  0.81790000  1.0
  O2-  O2  1  0.00963333  0.40100000  0.81790000  1.0
  O2-  O2  1  0.00963333  0.73433333  0.81790000  1.0
  O2-  O2  1  0.34296667  0.06766667  0.81790000  1.0
  O2-  O2  1  0.34296667  0.40100000  0.81790000  1.0
  O2-  O2  1  0.34296667  0.73433333  0.81790000  1.0
  O2-  O2  1  0.67630000  0.06766667  0.81790000  1.0
  O2-  O2  1  0.67630000  0.40100000  0.81790000  1.0
  O2-  O2  1  0.67630000  0.73433333  0.81790000  1.0
  O2-  O2  1  0.32370000  0.26566667  0.18210000  1.0
  O2-  O2  1  0.32370000  0.59900000  0.18210000  1.0
  O2-  O2  1  0.32370000  0.93233333  0.18210000  1.0
  O2-  O2  1  0.65703333  0.26566667  0.18210000  1.0
  O2-  O2  1  0.65703333  0.59900000  0.18210000  1.0
  O2-  O2  1  0.65703333  0.93233333  0.18210000  1.0
  O2-  O2  1  0.99036667  0.26566667  0.18210000  1.0
  O2-  O2  1  0.99036667  0.59900000  0.18210000  1.0
  O2-  O2  1  0.99036667  0.93233333  0.18210000  1.0
  O2-  O3  1  0.10660000  0.31916667  0.67630000  1.0
  O2-  O3  1  0.10660000  0.65250000  0.67630000  1.0
  O2-  O3  1  0.10660000  0.98583333  0.67630000  1.0
  O2-  O3  1  0.43993333  0.31916667  0.67630000  1.0
  O2-  O3  1  0.43993333  0.65250000  0.67630000  1.0
  O2-  O3  1  0.43993333  0.98583333  0.67630000  1.0
  O2-  O3  1  0.77326667  0.31916667  0.67630000  1.0
  O2-  O3  1  0.77326667  0.65250000  0.67630000  1.0
  O2-  O3  1  0.77326667  0.98583333  0.67630000  1.0
  O2-  O3  1  0.22673333  0.01416667  0.32370000  1.0
  O2-  O3  1  0.22673333  0.34750000  0.32370000  1.0
  O2-  O3  1  0.22673333  0.68083333  0.32370000  1.0
  O2-  O3  1  0.56006667  0.01416667  0.32370000  1.0
  O2-  O3  1  0.56006667  0.34750000  0.32370000  1.0
  O2-  O3  1  0.56006667  0.68083333  0.32370000  1.0
  O2-  O3  1  0.89340000  0.01416667  0.32370000  1.0
  O2-  O3  1  0.89340000  0.34750000  0.32370000  1.0
  O2-  O3  1  0.89340000  0.68083333  0.32370000  1.0
  O2-  O4  1  0.15566667  0.20226667  0.73540000  1.0
  O2-  O4  1  0.15566667  0.53560000  0.73540000  1.0
  O2-  O4  1  0.15566667  0.86893333  0.73540000  1.0
  O2-  O4  1  0.48900000  0.20226667  0.73540000  1.0
  O2-  O4  1  0.48900000  0.53560000  0.73540000  1.0
  O2-  O4  1  0.48900000  0.86893333  0.73540000  1.0
  O2-  O4  1  0.82233333  0.20226667  0.73540000  1.0
  O2-  O4  1  0.82233333  0.53560000  0.73540000  1.0
  O2-  O4  1  0.82233333  0.86893333  0.73540000  1.0
  O2-  O4  1  0.17766667  0.13106667  0.26460000  1.0
  O2-  O4  1  0.17766667  0.46440000  0.26460000  1.0
  O2-  O4  1  0.17766667  0.79773333  0.26460000  1.0
  O2-  O4  1  0.51100000  0.13106667  0.26460000  1.0
  O2-  O4  1  0.51100000  0.46440000  0.26460000  1.0
  O2-  O4  1  0.51100000  0.79773333  0.26460000  1.0
  O2-  O4  1  0.84433333  0.13106667  0.26460000  1.0
  O2-  O4  1  0.84433333  0.46440000  0.26460000  1.0
  O2-  O4  1  0.84433333  0.79773333  0.26460000  1.0
  O2-  O5  1  0.01770000  0.09323333  0.55460000  1.0
  O2-  O5  1  0.01770000  0.42656667  0.55460000  1.0
  O2-  O5  1  0.01770000  0.75990000  0.55460000  1.0
  O2-  O5  1  0.35103333  0.09323333  0.55460000  1.0
  O2-  O5  1  0.35103333  0.42656667  0.55460000  1.0
  O2-  O5  1  0.35103333  0.75990000  0.55460000  1.0
  O2-  O5  1  0.68436667  0.09323333  0.55460000  1.0
  O2-  O5  1  0.68436667  0.42656667  0.55460000  1.0
  O2-  O5  1  0.68436667  0.75990000  0.55460000  1.0
  O2-  O5  1  0.31563333  0.24010000  0.44540000  1.0
  O2-  O5  1  0.31563333  0.57343333  0.44540000  1.0
  O2-  O5  1  0.31563333  0.90676667  0.44540000  1.0
  O2-  O5  1  0.64896667  0.24010000  0.44540000  1.0
  O2-  O5  1  0.64896667  0.57343333  0.44540000  1.0
  O2-  O5  1  0.64896667  0.90676667  0.44540000  1.0
  O2-  O5  1  0.98230000  0.24010000  0.44540000  1.0
  O2-  O5  1  0.98230000  0.57343333  0.44540000  1.0
  O2-  O5  1  0.98230000  0.90676667  0.44540000  1.0
