# generated using pymatgen
data_Li4Zn(PS4)2
_symmetry_space_group_name_H-M   'P 1'
_cell_length_a   34.76700000
_cell_length_b   11.58900000
_cell_length_c   12.04934505
_cell_angle_alpha   118.74403605
_cell_angle_beta   118.74403605
_cell_angle_gamma   90.00000000
_symmetry_Int_Tables_number   1
_chemical_formula_structural   Li4Zn(PS4)2
_chemical_formula_sum   'Li48 Zn12 P24 S96'
_cell_volume   3559.22814089
_cell_formula_units_Z   12
loop_
 _symmetry_equiv_pos_site_id
 _symmetry_equiv_pos_as_xyz
  1  'x, y, z'
loop_
 _atom_type_symbol
 _atom_type_oxidation_number
  Li+  1.0
  Zn2+  2.0
  P5+  5.0
  S2-  -2.0
loop_
 _atom_site_type_symbol
 _atom_site_label
 _atom_site_symmetry_multiplicity
 _atom_site_fract_x
 _atom_site_fract_y
 _atom_site_fract_z
 _atom_site_occupancy
  Li+  Li2  1  0.08333333  0.25000000  0.50000000  1.0
  Li+  Li2  1  0.41666667  0.25000000  0.50000000  1.0
  Li+  Li2  1  0.75000000  0.25000000  0.50000000  1.0
  Li+  Li2  1  0.08333333  0.25000000  0.00000000  1.0
  Li+  Li2  1  0.41666667  0.25000000  0.00000000  1.0
  Li+  Li2  1  0.75000000  0.25000000  0.00000000  1.0
  Li+  Li2  1  0.08333333  0.75000000  0.50000000  1.0
  Li+  Li2  1  0.41666667  0.75000000  0.50000000  1.0
  Li+  Li2  1  0.75000000  0.75000000  0.50000000  1.0
  Li+  Li2  1  0.08333333  0.75000000  1.00000000  1.0
  Li+  Li2  1  0.41666667  0.75000000  0.00000000  1.0
  Li+  Li2  1  0.75000000  0.75000000  1.00000000  1.0
  Li+  Li2  1  0.25000000  0.25000000  0.50000000  1.0
  Li+  Li2  1  0.58333333  0.25000000  0.50000000  1.0
  Li+  Li2  1  0.91666667  0.25000000  0.50000000  1.0
  Li+  Li2  1  0.25000000  0.25000000  0.00000000  1.0
  Li+  Li2  1  0.58333333  0.25000000  0.00000000  1.0
  Li+  Li2  1  0.91666667  0.25000000  0.00000000  1.0
  Li+  Li2  1  0.25000000  0.75000000  0.50000000  1.0
  Li+  Li2  1  0.58333333  0.75000000  0.50000000  1.0
  Li+  Li2  1  0.91666667  0.75000000  0.50000000  1.0
  Li+  Li2  1  0.25000000  0.75000000  1.00000000  1.0
  Li+  Li2  1  0.58333333  0.75000000  1.00000000  1.0
  Li+  Li2  1  0.91666667  0.75000000  0.00000000  1.0
  Li+  Li8  1  0.12500000  0.12500000  0.25000000  1.0
  Li+  Li8  1  0.45833333  0.12500000  0.25000000  1.0
  Li+  Li8  1  0.79166667  0.12500000  0.25000000  1.0
  Li+  Li9  1  0.12500000  0.12500000  0.75000000  1.0
  Li+  Li9  1  0.45833333  0.12500000  0.75000000  1.0
  Li+  Li9  1  0.79166667  0.12500000  0.75000000  1.0
  Li+  Li10  1  0.12500000  0.62500000  0.25000000  1.0
  Li+  Li10  1  0.45833333  0.62500000  0.25000000  1.0
  Li+  Li10  1  0.79166667  0.62500000  0.25000000  1.0
  Li+  Li11  1  0.29166667  0.62500000  0.75000000  1.0
  Li+  Li11  1  0.62500000  0.62500000  0.75000000  1.0
  Li+  Li11  1  0.95833333  0.62500000  0.75000000  1.0
  Li+  Li12  1  0.00000000  0.00000000  0.00000000  1.0
  Li+  Li12  1  0.33333333  0.00000000  0.00000000  1.0
  Li+  Li12  1  0.66666667  0.00000000  0.00000000  1.0
  Li+  Li13  1  0.16666667  0.00000000  0.00000000  1.0
  Li+  Li13  1  0.50000000  0.00000000  0.00000000  1.0
  Li+  Li13  1  0.83333333  0.00000000  0.00000000  1.0
  Li+  Li14  1  0.16666667  0.00000000  0.50000000  1.0
  Li+  Li14  1  0.50000000  0.00000000  0.50000000  1.0
  Li+  Li14  1  0.83333333  0.00000000  0.50000000  1.0
  Li+  Li15  1  0.16666667  0.50000000  0.50000000  1.0
  Li+  Li15  1  0.50000000  0.50000000  0.50000000  1.0
  Li+  Li15  1  0.83333333  0.50000000  0.50000000  1.0
  Zn2+  Zn16  1  0.00000000  0.00000000  0.50000000  1.0
  Zn2+  Zn16  1  0.33333333  0.00000000  0.50000000  1.0
  Zn2+  Zn16  1  0.66666667  0.00000000  0.50000000  1.0
  Zn2+  Zn17  1  0.00000000  0.50000000  0.00000000  1.0
  Zn2+  Zn17  1  0.33333333  0.50000000  1.00000000  1.0
  Zn2+  Zn17  1  0.66666667  0.50000000  0.00000000  1.0
  Zn2+  Zn18  1  0.00000000  0.50000000  0.50000000  1.0
  Zn2+  Zn18  1  0.33333333  0.50000000  0.50000000  1.0
  Zn2+  Zn18  1  0.66666667  0.50000000  0.50000000  1.0
  Zn2+  Zn19  1  0.16666667  0.50000000  0.00000000  1.0
  Zn2+  Zn19  1  0.50000000  0.50000000  0.00000000  1.0
  Zn2+  Zn19  1  0.83333333  0.50000000  0.00000000  1.0
  P5+  P1  1  0.04166667  0.37500000  0.25000000  1.0
  P5+  P1  1  0.37500000  0.37500000  0.25000000  1.0
  P5+  P1  1  0.70833333  0.37500000  0.25000000  1.0
  P5+  P1  1  0.04166667  0.37500000  0.75000000  1.0
  P5+  P1  1  0.37500000  0.37500000  0.75000000  1.0
  P5+  P1  1  0.70833333  0.37500000  0.75000000  1.0
  P5+  P1  1  0.04166667  0.87500000  0.25000000  1.0
  P5+  P1  1  0.37500000  0.87500000  0.25000000  1.0
  P5+  P1  1  0.70833333  0.87500000  0.25000000  1.0
  P5+  P1  1  0.04166667  0.87500000  0.75000000  1.0
  P5+  P1  1  0.37500000  0.87500000  0.75000000  1.0
  P5+  P1  1  0.70833333  0.87500000  0.75000000  1.0
  P5+  P1  1  0.20833333  0.37500000  0.25000000  1.0
  P5+  P1  1  0.54166667  0.37500000  0.25000000  1.0
  P5+  P1  1  0.87500000  0.37500000  0.25000000  1.0
  P5+  P1  1  0.20833333  0.37500000  0.75000000  1.0
  P5+  P1  1  0.54166667  0.37500000  0.75000000  1.0
  P5+  P1  1  0.87500000  0.37500000  0.75000000  1.0
  P5+  P1  1  0.20833333  0.87500000  0.25000000  1.0
  P5+  P1  1  0.54166667  0.87500000  0.25000000  1.0
  P5+  P1  1  0.87500000  0.87500000  0.25000000  1.0
  P5+  P1  1  0.20833333  0.87500000  0.75000000  1.0
  P5+  P1  1  0.54166667  0.87500000  0.75000000  1.0
  P5+  P1  1  0.87500000  0.87500000  0.75000000  1.0
  S2-  S1  1  0.09931667  0.33660000  0.37800000  1.0
  S2-  S1  1  0.43265000  0.33660000  0.37800000  1.0
  S2-  S1  1  0.76598333  0.33660000  0.37800000  1.0
  S2-  S1  1  0.09931667  0.33660000  0.87800000  1.0
  S2-  S1  1  0.43265000  0.33660000  0.87800000  1.0
  S2-  S1  1  0.76598333  0.33660000  0.87800000  1.0
  S2-  S1  1  0.09931667  0.83660000  0.37800000  1.0
  S2-  S1  1  0.43265000  0.83660000  0.37800000  1.0
  S2-  S1  1  0.76598333  0.83660000  0.37800000  1.0
  S2-  S1  1  0.09931667  0.83660000  0.87800000  1.0
  S2-  S1  1  0.43265000  0.83660000  0.87800000  1.0
  S2-  S1  1  0.76598333  0.83660000  0.87800000  1.0
  S2-  S1  1  0.26598333  0.33660000  0.37800000  1.0
  S2-  S1  1  0.59931667  0.33660000  0.37800000  1.0
  S2-  S1  1  0.93265000  0.33660000  0.37800000  1.0
  S2-  S1  1  0.26598333  0.33660000  0.87800000  1.0
  S2-  S1  1  0.59931667  0.33660000  0.87800000  1.0
  S2-  S1  1  0.93265000  0.33660000  0.87800000  1.0
  S2-  S1  1  0.26598333  0.83660000  0.37800000  1.0
  S2-  S1  1  0.59931667  0.83660000  0.37800000  1.0
  S2-  S1  1  0.93265000  0.83660000  0.37800000  1.0
  S2-  S1  1  0.26598333  0.83660000  0.87800000  1.0
  S2-  S1  1  0.59931667  0.83660000  0.87800000  1.0
  S2-  S1  1  0.93265000  0.83660000  0.87800000  1.0
  S2-  S1  1  0.02668333  0.04140000  0.37800000  1.0
  S2-  S1  1  0.36001667  0.04140000  0.37800000  1.0
  S2-  S1  1  0.69335000  0.04140000  0.37800000  1.0
  S2-  S1  1  0.02668333  0.04140000  0.87800000  1.0
  S2-  S1  1  0.36001667  0.04140000  0.87800000  1.0
  S2-  S1  1  0.69335000  0.04140000  0.87800000  1.0
  S2-  S1  1  0.02668333  0.54140000  0.37800000  1.0
  S2-  S1  1  0.36001667  0.54140000  0.37800000  1.0
  S2-  S1  1  0.69335000  0.54140000  0.37800000  1.0
  S2-  S1  1  0.02668333  0.54140000  0.87800000  1.0
  S2-  S1  1  0.36001667  0.54140000  0.87800000  1.0
  S2-  S1  1  0.69335000  0.54140000  0.87800000  1.0
  S2-  S1  1  0.19335000  0.04140000  0.37800000  1.0
  S2-  S1  1  0.52668333  0.04140000  0.37800000  1.0
  S2-  S1  1  0.86001667  0.04140000  0.37800000  1.0
  S2-  S1  1  0.19335000  0.04140000  0.87800000  1.0
  S2-  S1  1  0.52668333  0.04140000  0.87800000  1.0
  S2-  S1  1  0.86001667  0.04140000  0.87800000  1.0
  S2-  S1  1  0.19335000  0.54140000  0.37800000  1.0
  S2-  S1  1  0.52668333  0.54140000  0.37800000  1.0
  S2-  S1  1  0.86001667  0.54140000  0.37800000  1.0
  S2-  S1  1  0.19335000  0.54140000  0.87800000  1.0
  S2-  S1  1  0.52668333  0.54140000  0.87800000  1.0
  S2-  S1  1  0.86001667  0.54140000  0.87800000  1.0
  S2-  S1  1  0.05446667  0.41995000  0.12200000  1.0
  S2-  S1  1  0.38780000  0.41995000  0.12200000  1.0
  S2-  S1  1  0.72113333  0.41995000  0.12200000  1.0
  S2-  S1  1  0.05446667  0.41995000  0.62200000  1.0
  S2-  S1  1  0.38780000  0.41995000  0.62200000  1.0
  S2-  S1  1  0.72113333  0.41995000  0.62200000  1.0
  S2-  S1  1  0.05446667  0.91995000  0.12200000  1.0
  S2-  S1  1  0.38780000  0.91995000  0.12200000  1.0
  S2-  S1  1  0.72113333  0.91995000  0.12200000  1.0
  S2-  S1  1  0.05446667  0.91995000  0.62200000  1.0
  S2-  S1  1  0.38780000  0.91995000  0.62200000  1.0
  S2-  S1  1  0.72113333  0.91995000  0.62200000  1.0
  S2-  S1  1  0.22113333  0.41995000  0.12200000  1.0
  S2-  S1  1  0.55446667  0.41995000  0.12200000  1.0
  S2-  S1  1  0.88780000  0.41995000  0.12200000  1.0
  S2-  S1  1  0.22113333  0.41995000  0.62200000  1.0
  S2-  S1  1  0.55446667  0.41995000  0.62200000  1.0
  S2-  S1  1  0.88780000  0.41995000  0.62200000  1.0
  S2-  S1  1  0.22113333  0.91995000  0.12200000  1.0
  S2-  S1  1  0.55446667  0.91995000  0.12200000  1.0
  S2-  S1  1  0.88780000  0.91995000  0.12200000  1.0
  S2-  S1  1  0.22113333  0.91995000  0.62200000  1.0
  S2-  S1  1  0.55446667  0.91995000  0.62200000  1.0
  S2-  S1  1  0.88780000  0.91995000  0.62200000  1.0
  S2-  S1  1  0.15286667  0.20205000  0.12200000  1.0
  S2-  S1  1  0.48620000  0.20205000  0.12200000  1.0
  S2-  S1  1  0.81953333  0.20205000  0.12200000  1.0
  S2-  S1  1  0.15286667  0.20205000  0.62200000  1.0
  S2-  S1  1  0.48620000  0.20205000  0.62200000  1.0
  S2-  S1  1  0.81953333  0.20205000  0.62200000  1.0
  S2-  S1  1  0.15286667  0.70205000  0.12200000  1.0
  S2-  S1  1  0.48620000  0.70205000  0.12200000  1.0
  S2-  S1  1  0.81953333  0.70205000  0.12200000  1.0
  S2-  S1  1  0.15286667  0.70205000  0.62200000  1.0
  S2-  S1  1  0.48620000  0.70205000  0.62200000  1.0
  S2-  S1  1  0.81953333  0.70205000  0.62200000  1.0
  S2-  S1  1  0.31953333  0.20205000  0.12200000  1.0
  S2-  S1  1  0.65286667  0.20205000  0.12200000  1.0
  S2-  S1  1  0.98620000  0.20205000  0.12200000  1.0
  S2-  S1  1  0.31953333  0.20205000  0.62200000  1.0
  S2-  S1  1  0.65286667  0.20205000  0.62200000  1.0
  S2-  S1  1  0.98620000  0.20205000  0.62200000  1.0
  S2-  S1  1  0.31953333  0.70205000  0.12200000  1.0
  S2-  S1  1  0.65286667  0.70205000  0.12200000  1.0
  S2-  S1  1  0.98620000  0.70205000  0.12200000  1.0
  S2-  S1  1  0.31953333  0.70205000  0.62200000  1.0
  S2-  S1  1  0.65286667  0.70205000  0.62200000  1.0
  S2-  S1  1  0.98620000  0.70205000  0.62200000  1.0
