# generated using pymatgen
data_LiZr2(PO4)3
_symmetry_space_group_name_H-M   'P 1'
_cell_length_a   17.69400000
_cell_length_b   17.69400000
_cell_length_c   9.00262818
_cell_angle_alpha   60.57021963
_cell_angle_beta   60.57021963
_cell_angle_gamma   60.00000000
_symmetry_Int_Tables_number   1
_chemical_formula_structural   LiZr2(PO4)3
_chemical_formula_sum   'Li8 Zr16 P24 O96'
_cell_volume   2010.00068699
_cell_formula_units_Z   8
loop_
 _symmetry_equiv_pos_site_id
 _symmetry_equiv_pos_as_xyz
  1  'x, y, z'
loop_
 _atom_type_symbol
 _atom_type_oxidation_number
  Li+  1.0
  Zr4+  4.0
  P5+  5.0
  O2-  -2.0
loop_
 _atom_site_type_symbol
 _atom_site_label
 _atom_site_symmetry_multiplicity
 _atom_site_fract_x
 _atom_site_fract_y
 _atom_site_fract_z
 _atom_site_occupancy
  Li+  Li1  1  0.25000000  0.25000000  0.50000000  1.0
  Li+  Li1  1  0.75000000  0.25000000  0.50000000  1.0
  Li+  Li1  1  0.25000000  0.75000000  0.50000000  1.0
  Li+  Li1  1  0.75000000  0.75000000  0.50000000  1.0
  Li+  Li1  1  0.00000000  0.00000000  0.00000000  1.0
  Li+  Li1  1  0.50000000  0.00000000  0.00000000  1.0
  Li+  Li1  1  0.00000000  0.50000000  0.00000000  1.0
  Li+  Li1  1  0.50000000  0.50000000  0.00000000  1.0
  Zr4+  Zr1  1  0.17860000  0.17860000  0.92840000  1.0
  Zr4+  Zr1  1  0.67860000  0.17860000  0.92840000  1.0
  Zr4+  Zr1  1  0.17860000  0.67860000  0.92840000  1.0
  Zr4+  Zr1  1  0.67860000  0.67860000  0.92840000  1.0
  Zr4+  Zr1  1  0.42860000  0.42860000  0.42840000  1.0
  Zr4+  Zr1  1  0.92860000  0.42860000  0.42840000  1.0
  Zr4+  Zr1  1  0.42860000  0.92860000  0.42840000  1.0
  Zr4+  Zr1  1  0.92860000  0.92860000  0.42840000  1.0
  Zr4+  Zr1  1  0.32140000  0.32140000  0.07160000  1.0
  Zr4+  Zr1  1  0.82140000  0.32140000  0.07160000  1.0
  Zr4+  Zr1  1  0.32140000  0.82140000  0.07160000  1.0
  Zr4+  Zr1  1  0.82140000  0.82140000  0.07160000  1.0
  Zr4+  Zr1  1  0.07140000  0.07140000  0.57160000  1.0
  Zr4+  Zr1  1  0.57140000  0.07140000  0.57160000  1.0
  Zr4+  Zr1  1  0.07140000  0.57140000  0.57160000  1.0
  Zr4+  Zr1  1  0.57140000  0.57140000  0.57160000  1.0
  P5+  P1  1  0.12500000  0.48050000  0.25000000  1.0
  P5+  P1  1  0.62500000  0.48050000  0.25000000  1.0
  P5+  P1  1  0.12500000  0.98050000  0.25000000  1.0
  P5+  P1  1  0.62500000  0.98050000  0.25000000  1.0
  P5+  P1  1  0.26950000  0.12500000  0.25000000  1.0
  P5+  P1  1  0.76950000  0.12500000  0.25000000  1.0
  P5+  P1  1  0.26950000  0.62500000  0.25000000  1.0
  P5+  P1  1  0.76950000  0.62500000  0.25000000  1.0
  P5+  P1  1  0.48050000  0.26950000  0.25000000  1.0
  P5+  P1  1  0.98050000  0.26950000  0.25000000  1.0
  P5+  P1  1  0.48050000  0.76950000  0.25000000  1.0
  P5+  P1  1  0.98050000  0.76950000  0.25000000  1.0
  P5+  P1  1  0.23050000  0.37500000  0.75000000  1.0
  P5+  P1  1  0.73050000  0.37500000  0.75000000  1.0
  P5+  P1  1  0.23050000  0.87500000  0.75000000  1.0
  P5+  P1  1  0.73050000  0.87500000  0.75000000  1.0
  P5+  P1  1  0.01950000  0.23050000  0.75000000  1.0
  P5+  P1  1  0.51950000  0.23050000  0.75000000  1.0
  P5+  P1  1  0.01950000  0.73050000  0.75000000  1.0
  P5+  P1  1  0.51950000  0.73050000  0.75000000  1.0
  P5+  P1  1  0.37500000  0.01950000  0.75000000  1.0
  P5+  P1  1  0.87500000  0.01950000  0.75000000  1.0
  P5+  P1  1  0.37500000  0.51950000  0.75000000  1.0
  P5+  P1  1  0.87500000  0.51950000  0.75000000  1.0
  O2-  O1  1  0.14890000  0.05955000  0.08200000  1.0
  O2-  O1  1  0.64890000  0.05955000  0.08200000  1.0
  O2-  O1  1  0.14890000  0.55955000  0.08200000  1.0
  O2-  O1  1  0.64890000  0.55955000  0.08200000  1.0
  O2-  O1  1  0.25055000  0.14890000  0.08200000  1.0
  O2-  O1  1  0.75055000  0.14890000  0.08200000  1.0
  O2-  O1  1  0.25055000  0.64890000  0.08200000  1.0
  O2-  O1  1  0.75055000  0.64890000  0.08200000  1.0
  O2-  O1  1  0.05955000  0.25055000  0.08200000  1.0
  O2-  O1  1  0.55955000  0.25055000  0.08200000  1.0
  O2-  O1  1  0.05955000  0.75055000  0.08200000  1.0
  O2-  O1  1  0.55955000  0.75055000  0.08200000  1.0
  O2-  O1  1  0.30955000  0.39890000  0.58200000  1.0
  O2-  O1  1  0.80955000  0.39890000  0.58200000  1.0
  O2-  O1  1  0.30955000  0.89890000  0.58200000  1.0
  O2-  O1  1  0.80955000  0.89890000  0.58200000  1.0
  O2-  O1  1  0.00055000  0.30955000  0.58200000  1.0
  O2-  O1  1  0.50055000  0.30955000  0.58200000  1.0
  O2-  O1  1  0.00055000  0.80955000  0.58200000  1.0
  O2-  O1  1  0.50055000  0.80955000  0.58200000  1.0
  O2-  O1  1  0.39890000  0.00055000  0.58200000  1.0
  O2-  O1  1  0.89890000  0.00055000  0.58200000  1.0
  O2-  O1  1  0.39890000  0.50055000  0.58200000  1.0
  O2-  O1  1  0.89890000  0.50055000  0.58200000  1.0
  O2-  O1  1  0.35110000  0.44045000  0.91800000  1.0
  O2-  O1  1  0.85110000  0.44045000  0.91800000  1.0
  O2-  O1  1  0.35110000  0.94045000  0.91800000  1.0
  O2-  O1  1  0.85110000  0.94045000  0.91800000  1.0
  O2-  O1  1  0.24945000  0.35110000  0.91800000  1.0
  O2-  O1  1  0.74945000  0.35110000  0.91800000  1.0
  O2-  O1  1  0.24945000  0.85110000  0.91800000  1.0
  O2-  O1  1  0.74945000  0.85110000  0.91800000  1.0
  O2-  O1  1  0.44045000  0.24945000  0.91800000  1.0
  O2-  O1  1  0.94045000  0.24945000  0.91800000  1.0
  O2-  O1  1  0.44045000  0.74945000  0.91800000  1.0
  O2-  O1  1  0.94045000  0.74945000  0.91800000  1.0
  O2-  O1  1  0.19045000  0.10110000  0.41800000  1.0
  O2-  O1  1  0.69045000  0.10110000  0.41800000  1.0
  O2-  O1  1  0.19045000  0.60110000  0.41800000  1.0
  O2-  O1  1  0.69045000  0.60110000  0.41800000  1.0
  O2-  O1  1  0.49945000  0.19045000  0.41800000  1.0
  O2-  O1  1  0.99945000  0.19045000  0.41800000  1.0
  O2-  O1  1  0.49945000  0.69045000  0.41800000  1.0
  O2-  O1  1  0.99945000  0.69045000  0.41800000  1.0
  O2-  O1  1  0.10110000  0.49945000  0.41800000  1.0
  O2-  O1  1  0.60110000  0.49945000  0.41800000  1.0
  O2-  O1  1  0.10110000  0.99945000  0.41800000  1.0
  O2-  O1  1  0.60110000  0.99945000  0.41800000  1.0
  O2-  O2  1  0.29330000  0.10940000  0.75500000  1.0
  O2-  O2  1  0.79330000  0.10940000  0.75500000  1.0
  O2-  O2  1  0.29330000  0.60940000  0.75500000  1.0
  O2-  O2  1  0.79330000  0.60940000  0.75500000  1.0
  O2-  O2  1  0.21980000  0.29330000  0.75500000  1.0
  O2-  O2  1  0.71980000  0.29330000  0.75500000  1.0
  O2-  O2  1  0.21980000  0.79330000  0.75500000  1.0
  O2-  O2  1  0.71980000  0.79330000  0.75500000  1.0
  O2-  O2  1  0.10940000  0.21980000  0.75500000  1.0
  O2-  O2  1  0.60940000  0.21980000  0.75500000  1.0
  O2-  O2  1  0.10940000  0.71980000  0.75500000  1.0
  O2-  O2  1  0.60940000  0.71980000  0.75500000  1.0
  O2-  O2  1  0.35940000  0.04330000  0.25500000  1.0
  O2-  O2  1  0.85940000  0.04330000  0.25500000  1.0
  O2-  O2  1  0.35940000  0.54330000  0.25500000  1.0
  O2-  O2  1  0.85940000  0.54330000  0.25500000  1.0
  O2-  O2  1  0.46980000  0.35940000  0.25500000  1.0
  O2-  O2  1  0.96980000  0.35940000  0.25500000  1.0
  O2-  O2  1  0.46980000  0.85940000  0.25500000  1.0
  O2-  O2  1  0.96980000  0.85940000  0.25500000  1.0
  O2-  O2  1  0.04330000  0.46980000  0.25500000  1.0
  O2-  O2  1  0.54330000  0.46980000  0.25500000  1.0
  O2-  O2  1  0.04330000  0.96980000  0.25500000  1.0
  O2-  O2  1  0.54330000  0.96980000  0.25500000  1.0
  O2-  O2  1  0.20670000  0.39060000  0.24500000  1.0
  O2-  O2  1  0.70670000  0.39060000  0.24500000  1.0
  O2-  O2  1  0.20670000  0.89060000  0.24500000  1.0
  O2-  O2  1  0.70670000  0.89060000  0.24500000  1.0
  O2-  O2  1  0.28020000  0.20670000  0.24500000  1.0
  O2-  O2  1  0.78020000  0.20670000  0.24500000  1.0
  O2-  O2  1  0.28020000  0.70670000  0.24500000  1.0
  O2-  O2  1  0.78020000  0.70670000  0.24500000  1.0
  O2-  O2  1  0.39060000  0.28020000  0.24500000  1.0
  O2-  O2  1  0.89060000  0.28020000  0.24500000  1.0
  O2-  O2  1  0.39060000  0.78020000  0.24500000  1.0
  O2-  O2  1  0.89060000  0.78020000  0.24500000  1.0
  O2-  O2  1  0.14060000  0.45670000  0.74500000  1.0
  O2-  O2  1  0.64060000  0.45670000  0.74500000  1.0
  O2-  O2  1  0.14060000  0.95670000  0.74500000  1.0
  O2-  O2  1  0.64060000  0.95670000  0.74500000  1.0
  O2-  O2  1  0.03020000  0.14060000  0.74500000  1.0
  O2-  O2  1  0.53020000  0.14060000  0.74500000  1.0
  O2-  O2  1  0.03020000  0.64060000  0.74500000  1.0
  O2-  O2  1  0.53020000  0.64060000  0.74500000  1.0
  O2-  O2  1  0.45670000  0.03020000  0.74500000  1.0
  O2-  O2  1  0.95670000  0.03020000  0.74500000  1.0
  O2-  O2  1  0.45670000  0.53020000  0.74500000  1.0
  O2-  O2  1  0.95670000  0.53020000  0.74500000  1.0
