# generated using pymatgen
data_Li5I2N
_symmetry_space_group_name_H-M   'P 1'
_cell_length_a   13.49159739
_cell_length_b   13.49159738
_cell_length_c   33.72899346
_cell_angle_alpha   60.00000000
_cell_angle_beta   120.00000000
_cell_angle_gamma   120.00000000
_symmetry_Int_Tables_number   1
_chemical_formula_structural   Li5I2N
_chemical_formula_sum   'Li120 I48 N24'
_cell_volume   4341.25331964
_cell_formula_units_Z   24
loop_
 _symmetry_equiv_pos_site_id
 _symmetry_equiv_pos_as_xyz
  1  'x, y, z'
loop_
 _atom_type_symbol
 _atom_type_oxidation_number
  Li+  1.0
  I-  -1.0
  N3-  -3.0
loop_
 _atom_site_type_symbol
 _atom_site_label
 _atom_site_symmetry_multiplicity
 _atom_site_fract_x
 _atom_site_fract_y
 _atom_site_fract_z
 _atom_site_occupancy
  Li+  Li0  1  0.16948467  0.67254547  0.62054247  1.0
  Li+  Li1  1  0.17100000  0.17100000  0.61840000  1.0
  Li+  Li2  1  0.17100000  0.67100000  0.41840000  1.0
  Li+  Li3  1  0.17100000  0.17100000  0.41840000  1.0
  Li+  Li4  1  0.17100000  0.67100000  0.21840000  1.0
  Li+  Li5  1  0.17252165  0.16976868  0.21826576  1.0
  Li+  Li6  1  0.17100000  0.67100000  0.01840000  1.0
  Li+  Li7  1  0.16962511  0.17078458  0.01709038  1.0
  Li+  Li8  1  0.16912720  0.67693222  0.81772333  1.0
  Li+  Li9  1  0.17100000  0.17100000  0.81840000  1.0
  Li+  Li10  1  0.67100000  0.67100000  0.61840000  1.0
  Li+  Li11  1  0.67329374  0.16866526  0.61689797  1.0
  Li+  Li12  1  0.67100000  0.67100000  0.41840000  1.0
  Li+  Li13  1  0.67100000  0.17100000  0.41840000  1.0
  Li+  Li14  1  0.67100000  0.67100000  0.21840000  1.0
  Li+  Li15  1  0.66709813  0.17054470  0.21898701  1.0
  Li+  Li16  1  0.67100000  0.67100000  0.01840000  1.0
  Li+  Li17  1  0.67100000  0.17100000  0.01840000  1.0
  Li+  Li18  1  0.67100000  0.67100000  0.81840000  1.0
  Li+  Li19  1  0.67361326  0.16890188  0.81593437  1.0
  Li+  Li20  1  0.17100000  0.82900000  0.61840000  1.0
  Li+  Li21  1  0.17100000  0.32900000  0.61840000  1.0
  Li+  Li22  1  0.17100000  0.82900000  0.41840000  1.0
  Li+  Li23  1  0.17100000  0.32900000  0.41840000  1.0
  Li+  Li24  1  0.17244161  0.83177209  0.21732665  1.0
  Li+  Li25  1  0.17100000  0.32900000  0.21840000  1.0
  Li+  Li26  1  0.17100000  0.82900000  0.01840000  1.0
  Li+  Li27  1  0.16921357  0.33085859  0.01664599  1.0
  Li+  Li28  1  0.17100000  0.82900000  0.81840000  1.0
  Li+  Li29  1  0.17100000  0.32900000  0.81840000  1.0
  Li+  Li30  1  0.67100000  0.82900000  0.61840000  1.0
  Li+  Li31  1  0.67044637  0.32672278  0.62061458  1.0
  Li+  Li32  1  0.67100000  0.82900000  0.41840000  1.0
  Li+  Li33  1  0.67100000  0.32900000  0.41840000  1.0
  Li+  Li34  1  0.66770005  0.83165302  0.22010331  1.0
  Li+  Li35  1  0.67100000  0.32900000  0.21840000  1.0
  Li+  Li36  1  0.66841636  0.82928505  0.01881174  1.0
  Li+  Li37  1  0.67100000  0.32900000  0.01840000  1.0
  Li+  Li38  1  0.67115606  0.82849640  0.81850686  1.0
  Li+  Li39  1  0.67100000  0.32900000  0.81840000  1.0
  Li+  Li40  1  0.17100000  0.67100000  0.68160000  1.0
  Li+  Li41  1  0.17100000  0.17100000  0.68160000  1.0
  Li+  Li42  1  0.17100000  0.67100000  0.48160000  1.0
  Li+  Li43  1  0.17100000  0.17100000  0.48160000  1.0
  Li+  Li44  1  0.17100000  0.67100000  0.28160000  1.0
  Li+  Li45  1  0.17100000  0.17100000  0.28160000  1.0
  Li+  Li46  1  0.17100000  0.67100000  0.08160000  1.0
  Li+  Li47  1  0.17100000  0.17100000  0.08160000  1.0
  Li+  Li48  1  0.17086099  0.67054577  0.88090641  1.0
  Li+  Li49  1  0.17100000  0.17100000  0.88160000  1.0
  Li+  Li50  1  0.67100000  0.67100000  0.68160000  1.0
  Li+  Li51  1  0.66920029  0.17019732  0.68397787  1.0
  Li+  Li52  1  0.67100000  0.67100000  0.48160000  1.0
  Li+  Li53  1  0.66858919  0.17280391  0.47979265  1.0
  Li+  Li54  1  0.67611324  0.67145202  0.28164510  1.0
  Li+  Li55  1  0.67100000  0.17100000  0.28160000  1.0
  Li+  Li56  1  0.67607098  0.67242974  0.08174569  1.0
  Li+  Li57  1  0.67100000  0.17100000  0.08160000  1.0
  Li+  Li58  1  0.67100000  0.67100000  0.88160000  1.0
  Li+  Li59  1  0.67100000  0.17100000  0.88160000  1.0
  Li+  Li60  1  0.32900000  0.82900000  0.68160000  1.0
  Li+  Li61  1  0.32900000  0.32900000  0.68160000  1.0
  Li+  Li62  1  0.32900000  0.82900000  0.48160000  1.0
  Li+  Li63  1  0.32900000  0.32900000  0.48160000  1.0
  Li+  Li64  1  0.33249020  0.82724779  0.27941433  1.0
  Li+  Li65  1  0.32840581  0.32991173  0.27816355  1.0
  Li+  Li66  1  0.32900000  0.82900000  0.08160000  1.0
  Li+  Li67  1  0.32900000  0.32900000  0.08160000  1.0
  Li+  Li68  1  0.32900000  0.82900000  0.88160000  1.0
  Li+  Li69  1  0.32900000  0.32900000  0.88160000  1.0
  Li+  Li70  1  0.82900000  0.82900000  0.68160000  1.0
  Li+  Li71  1  0.82900000  0.32900000  0.68160000  1.0
  Li+  Li72  1  0.82900000  0.82900000  0.48160000  1.0
  Li+  Li73  1  0.82900000  0.32900000  0.48160000  1.0
  Li+  Li74  1  0.82900000  0.82900000  0.28160000  1.0
  Li+  Li75  1  0.82926316  0.32863864  0.28303526  1.0
  Li+  Li76  1  0.82900000  0.82900000  0.08160000  1.0
  Li+  Li77  1  0.82900000  0.32900000  0.08160000  1.0
  Li+  Li78  1  0.82900000  0.82900000  0.88160000  1.0
  Li+  Li79  1  0.82900000  0.32900000  0.88160000  1.0
  Li+  Li80  1  0.32778207  0.67216399  0.68058889  1.0
  Li+  Li81  1  0.32900000  0.17100000  0.68160000  1.0
  Li+  Li82  1  0.32900000  0.67100000  0.48160000  1.0
  Li+  Li83  1  0.32900000  0.17100000  0.48160000  1.0
  Li+  Li84  1  0.32900000  0.67100000  0.28160000  1.0
  Li+  Li85  1  0.32900000  0.17100000  0.28160000  1.0
  Li+  Li86  1  0.32900000  0.67100000  0.08160000  1.0
  Li+  Li87  1  0.32900000  0.17100000  0.08160000  1.0
  Li+  Li88  1  0.32962129  0.66457395  0.88070591  1.0
  Li+  Li89  1  0.32900000  0.17100000  0.88160000  1.0
  Li+  Li90  1  0.82900000  0.67100000  0.68160000  1.0
  Li+  Li91  1  0.82900000  0.17100000  0.68160000  1.0
  Li+  Li92  1  0.82900000  0.67100000  0.48160000  1.0
  Li+  Li93  1  0.82900000  0.17100000  0.48160000  1.0
  Li+  Li94  1  0.82900000  0.67100000  0.28160000  1.0
  Li+  Li95  1  0.82728338  0.17386664  0.28030072  1.0
  Li+  Li96  1  0.82900000  0.67100000  0.08160000  1.0
  Li+  Li97  1  0.82900000  0.17100000  0.08160000  1.0
  Li+  Li98  1  0.83350193  0.67063526  0.87588493  1.0
  Li+  Li99  1  0.82900000  0.17100000  0.88160000  1.0
  Li+  Li100  1  0.32900000  0.82900000  0.61840000  1.0
  Li+  Li101  1  0.32900000  0.32900000  0.61840000  1.0
  Li+  Li102  1  0.32900000  0.82900000  0.41840000  1.0
  Li+  Li103  1  0.32900000  0.32900000  0.41840000  1.0
  Li+  Li104  1  0.32900000  0.82900000  0.21840000  1.0
  Li+  Li105  1  0.32900000  0.32900000  0.21840000  1.0
  Li+  Li106  1  0.32900000  0.82900000  0.01840000  1.0
  Li+  Li107  1  0.32900000  0.32900000  0.01840000  1.0
  Li+  Li108  1  0.32900000  0.82900000  0.81840000  1.0
  Li+  Li109  1  0.32900000  0.32900000  0.81840000  1.0
  Li+  Li110  1  0.82900000  0.82900000  0.61840000  1.0
  Li+  Li111  1  0.83034467  0.33024391  0.62184264  1.0
  Li+  Li112  1  0.82900000  0.82900000  0.41840000  1.0
  Li+  Li113  1  0.82900000  0.32900000  0.41840000  1.0
  Li+  Li114  1  0.82900000  0.82900000  0.21840000  1.0
  Li+  Li115  1  0.82900000  0.32900000  0.21840000  1.0
  Li+  Li116  1  0.83050994  0.83111278  0.02149299  1.0
  Li+  Li117  1  0.82900000  0.32900000  0.01840000  1.0
  Li+  Li118  1  0.82900000  0.82900000  0.81840000  1.0
  Li+  Li119  1  0.82900000  0.32900000  0.81840000  1.0
  I-  I120  1  0.00000000  0.00000000  0.75000000  1.0
  I-  I121  1  0.00000000  0.50000000  0.75000000  1.0
  I-  I122  1  0.00000000  0.00000000  0.55000000  1.0
  I-  I123  1  0.00050213  0.50023152  0.54619799  1.0
  I-  I124  1  0.00000000  0.00000000  0.35000000  1.0
  I-  I125  1  0.99973262  0.50495457  0.34974358  1.0
  I-  I126  1  0.00000000  0.00000000  0.15000000  1.0
  I-  I127  1  0.00000000  0.50000000  0.15000000  1.0
  I-  I128  1  0.00000000  0.00000000  0.95000000  1.0
  I-  I129  1  0.00000000  0.50000000  0.95000000  1.0
  I-  I130  1  0.50220707  0.99912526  0.74808097  1.0
  I-  I131  1  0.50195830  0.49981734  0.74826473  1.0
  I-  I132  1  0.50000000  0.00000000  0.55000000  1.0
  I-  I133  1  0.50000000  0.50000000  0.55000000  1.0
  I-  I134  1  0.49419532  0.00071697  0.34906254  1.0
  I-  I135  1  0.49982269  0.49525839  0.35022585  1.0
  I-  I136  1  0.50000000  0.00000000  0.15000000  1.0
  I-  I137  1  0.49682719  0.50284828  0.14819960  1.0
  I-  I138  1  0.50311256  0.99865381  0.94868583  1.0
  I-  I139  1  0.50000000  0.50000000  0.95000000  1.0
  I-  I140  1  0.37500000  0.62500000  0.60000000  1.0
  I-  I141  1  0.37598919  0.12382944  0.60087162  1.0
  I-  I142  1  0.37500000  0.62500000  0.40000000  1.0
  I-  I143  1  0.37500000  0.12500000  0.40000000  1.0
  I-  I144  1  0.37500000  0.62500000  0.20000000  1.0
  I-  I145  1  0.37485386  0.12412247  0.20119150  1.0
  I-  I146  1  0.37500000  0.62500000  0.00000000  1.0
  I-  I147  1  0.37500000  0.12500000  0.00000000  1.0
  I-  I148  1  0.37500000  0.62500000  0.80000000  1.0
  I-  I149  1  0.37500000  0.12500000  0.80000000  1.0
  I-  I150  1  0.87665923  0.62249144  0.59765621  1.0
  I-  I151  1  0.87363442  0.12417966  0.59757645  1.0
  I-  I152  1  0.87500000  0.62500000  0.40000000  1.0
  I-  I153  1  0.87339821  0.12096446  0.40143544  1.0
  I-  I154  1  0.87500000  0.62500000  0.20000000  1.0
  I-  I155  1  0.87500000  0.12500000  0.20000000  1.0
  I-  I156  1  0.87500000  0.62500000  0.00000000  1.0
  I-  I157  1  0.87500000  0.12500000  0.00000000  1.0
  I-  I158  1  0.87500000  0.62500000  0.80000000  1.0
  I-  I159  1  0.87500000  0.12500000  0.80000000  1.0
  I-  I160  1  0.12385355  0.87521487  0.50280485  1.0
  I-  I161  1  0.12500000  0.37500000  0.50000000  1.0
  I-  I162  1  0.12500000  0.87500000  0.10000000  1.0
  I-  I163  1  0.12500000  0.37500000  0.10000000  1.0
  I-  I164  1  0.62500000  0.87500000  0.70000000  1.0
  I-  I165  1  0.62500000  0.37500000  0.70000000  1.0
  I-  I166  1  0.62500000  0.87500000  0.50000000  1.0
  I-  I167  1  0.62500000  0.37500000  0.50000000  1.0
  N3-  N168  1  0.62500000  0.87500000  0.30000000  1.0
  N3-  N169  1  0.62500000  0.37500000  0.30000000  1.0
  N3-  N170  1  0.62591511  0.87635894  0.90357103  1.0
  N3-  N171  1  0.62770298  0.37412827  0.90060485  1.0
  N3-  N172  1  0.25000000  0.75000000  0.65000000  1.0
  N3-  N173  1  0.24925456  0.25047049  0.64592581  1.0
  N3-  N174  1  0.25000000  0.75000000  0.45000000  1.0
  N3-  N175  1  0.25000000  0.25000000  0.45000000  1.0
  N3-  N176  1  0.25000000  0.75000000  0.25000000  1.0
  N3-  N177  1  0.25000000  0.25000000  0.25000000  1.0
  N3-  N178  1  0.25000000  0.75000000  0.05000000  1.0
  N3-  N179  1  0.25000000  0.25000000  0.05000000  1.0
  N3-  N180  1  0.25000000  0.75000000  0.85000000  1.0
  N3-  N181  1  0.25000000  0.25000000  0.85000000  1.0
  N3-  N182  1  0.74945473  0.75202294  0.65192857  1.0
  N3-  N183  1  0.75000000  0.25000000  0.65000000  1.0
  N3-  N184  1  0.74977235  0.74827440  0.44817024  1.0
  N3-  N185  1  0.75000000  0.25000000  0.45000000  1.0
  N3-  N186  1  0.75114932  0.75263476  0.24951255  1.0
  N3-  N187  1  0.75000000  0.25000000  0.25000000  1.0
  N3-  N188  1  0.75000000  0.75000000  0.05000000  1.0
  N3-  N189  1  0.75000000  0.25000000  0.05000000  1.0
  N3-  N190  1  0.75000000  0.75000000  0.85000000  1.0
  N3-  N191  1  0.74748403  0.25208296  0.85065248  1.0
