# generated using pymatgen
data_Li5I2N
_symmetry_space_group_name_H-M   'P 1'
_cell_length_a   13.49159739
_cell_length_b   33.72899346
_cell_length_c   13.49159738
_cell_angle_alpha   60.00000000
_cell_angle_beta   60.00000000
_cell_angle_gamma   60.00000000
_symmetry_Int_Tables_number   1
_chemical_formula_structural   Li5I2N
_chemical_formula_sum   'Li120 I48 N24'
_cell_volume   4341.25331964
_cell_formula_units_Z   24
loop_
 _symmetry_equiv_pos_site_id
 _symmetry_equiv_pos_as_xyz
  1  'x, y, z'
loop_
 _atom_type_symbol
 _atom_type_oxidation_number
  Li+  1.0
  I-  -1.0
  N3-  -3.0
loop_
 _atom_site_type_symbol
 _atom_site_label
 _atom_site_symmetry_multiplicity
 _atom_site_fract_x
 _atom_site_fract_y
 _atom_site_fract_z
 _atom_site_occupancy
  Li+  Li1  1  0.17100000  0.13160000  0.32900000  1.0
  Li+  Li1  1  0.17100000  0.13160000  0.82900000  1.0
  Li+  Li1  1  0.17100000  0.33160000  0.32900000  1.0
  Li+  Li1  1  0.17100000  0.33160000  0.82900000  1.0
  Li+  Li1  1  0.17100000  0.53160000  0.32900000  1.0
  Li+  Li1  1  0.17100000  0.53160000  0.82900000  1.0
  Li+  Li1  1  0.17100000  0.73160000  0.32900000  1.0
  Li+  Li1  1  0.17100000  0.73160000  0.82900000  1.0
  Li+  Li1  1  0.17100000  0.93160000  0.32900000  1.0
  Li+  Li1  1  0.17100000  0.93160000  0.82900000  1.0
  Li+  Li1  1  0.67100000  0.13160000  0.32900000  1.0
  Li+  Li1  1  0.67100000  0.13160000  0.82900000  1.0
  Li+  Li1  1  0.67100000  0.33160000  0.32900000  1.0
  Li+  Li1  1  0.67100000  0.33160000  0.82900000  1.0
  Li+  Li1  1  0.67100000  0.53160000  0.32900000  1.0
  Li+  Li1  1  0.67100000  0.53160000  0.82900000  1.0
  Li+  Li1  1  0.67100000  0.73160000  0.32900000  1.0
  Li+  Li1  1  0.67100000  0.73160000  0.82900000  1.0
  Li+  Li1  1  0.67100000  0.93160000  0.32900000  1.0
  Li+  Li1  1  0.67100000  0.93160000  0.82900000  1.0
  Li+  Li1  1  0.17100000  0.13160000  0.17100000  1.0
  Li+  Li1  1  0.17100000  0.13160000  0.67100000  1.0
  Li+  Li1  1  0.17100000  0.33160000  0.17100000  1.0
  Li+  Li1  1  0.17100000  0.33160000  0.67100000  1.0
  Li+  Li1  1  0.17100000  0.53160000  0.17100000  1.0
  Li+  Li1  1  0.17100000  0.53160000  0.67100000  1.0
  Li+  Li1  1  0.17100000  0.73160000  0.17100000  1.0
  Li+  Li1  1  0.17100000  0.73160000  0.67100000  1.0
  Li+  Li1  1  0.17100000  0.93160000  0.17100000  1.0
  Li+  Li1  1  0.17100000  0.93160000  0.67100000  1.0
  Li+  Li1  1  0.67100000  0.13160000  0.17100000  1.0
  Li+  Li1  1  0.67100000  0.13160000  0.67100000  1.0
  Li+  Li1  1  0.67100000  0.33160000  0.17100000  1.0
  Li+  Li1  1  0.67100000  0.33160000  0.67100000  1.0
  Li+  Li1  1  0.67100000  0.53160000  0.17100000  1.0
  Li+  Li1  1  0.67100000  0.53160000  0.67100000  1.0
  Li+  Li1  1  0.67100000  0.73160000  0.17100000  1.0
  Li+  Li1  1  0.67100000  0.73160000  0.67100000  1.0
  Li+  Li1  1  0.67100000  0.93160000  0.17100000  1.0
  Li+  Li1  1  0.67100000  0.93160000  0.67100000  1.0
  Li+  Li1  1  0.17100000  0.06840000  0.32900000  1.0
  Li+  Li1  1  0.17100000  0.06840000  0.82900000  1.0
  Li+  Li1  1  0.17100000  0.26840000  0.32900000  1.0
  Li+  Li1  1  0.17100000  0.26840000  0.82900000  1.0
  Li+  Li1  1  0.17100000  0.46840000  0.32900000  1.0
  Li+  Li1  1  0.17100000  0.46840000  0.82900000  1.0
  Li+  Li1  1  0.17100000  0.66840000  0.32900000  1.0
  Li+  Li1  1  0.17100000  0.66840000  0.82900000  1.0
  Li+  Li1  1  0.17100000  0.86840000  0.32900000  1.0
  Li+  Li1  1  0.17100000  0.86840000  0.82900000  1.0
  Li+  Li1  1  0.67100000  0.06840000  0.32900000  1.0
  Li+  Li1  1  0.67100000  0.06840000  0.82900000  1.0
  Li+  Li1  1  0.67100000  0.26840000  0.32900000  1.0
  Li+  Li1  1  0.67100000  0.26840000  0.82900000  1.0
  Li+  Li1  1  0.67100000  0.46840000  0.32900000  1.0
  Li+  Li1  1  0.67100000  0.46840000  0.82900000  1.0
  Li+  Li1  1  0.67100000  0.66840000  0.32900000  1.0
  Li+  Li1  1  0.67100000  0.66840000  0.82900000  1.0
  Li+  Li1  1  0.67100000  0.86840000  0.32900000  1.0
  Li+  Li1  1  0.67100000  0.86840000  0.82900000  1.0
  Li+  Li1  1  0.32900000  0.06840000  0.17100000  1.0
  Li+  Li1  1  0.32900000  0.06840000  0.67100000  1.0
  Li+  Li1  1  0.32900000  0.26840000  0.17100000  1.0
  Li+  Li1  1  0.32900000  0.26840000  0.67100000  1.0
  Li+  Li1  1  0.32900000  0.46840000  0.17100000  1.0
  Li+  Li1  1  0.32900000  0.46840000  0.67100000  1.0
  Li+  Li1  1  0.32900000  0.66840000  0.17100000  1.0
  Li+  Li1  1  0.32900000  0.66840000  0.67100000  1.0
  Li+  Li1  1  0.32900000  0.86840000  0.17100000  1.0
  Li+  Li1  1  0.32900000  0.86840000  0.67100000  1.0
  Li+  Li1  1  0.82900000  0.06840000  0.17100000  1.0
  Li+  Li1  1  0.82900000  0.06840000  0.67100000  1.0
  Li+  Li1  1  0.82900000  0.26840000  0.17100000  1.0
  Li+  Li1  1  0.82900000  0.26840000  0.67100000  1.0
  Li+  Li1  1  0.82900000  0.46840000  0.17100000  1.0
  Li+  Li1  1  0.82900000  0.46840000  0.67100000  1.0
  Li+  Li1  1  0.82900000  0.66840000  0.17100000  1.0
  Li+  Li1  1  0.82900000  0.66840000  0.67100000  1.0
  Li+  Li1  1  0.82900000  0.86840000  0.17100000  1.0
  Li+  Li1  1  0.82900000  0.86840000  0.67100000  1.0
  Li+  Li1  1  0.32900000  0.06840000  0.32900000  1.0
  Li+  Li1  1  0.32900000  0.06840000  0.82900000  1.0
  Li+  Li1  1  0.32900000  0.26840000  0.32900000  1.0
  Li+  Li1  1  0.32900000  0.26840000  0.82900000  1.0
  Li+  Li1  1  0.32900000  0.46840000  0.32900000  1.0
  Li+  Li1  1  0.32900000  0.46840000  0.82900000  1.0
  Li+  Li1  1  0.32900000  0.66840000  0.32900000  1.0
  Li+  Li1  1  0.32900000  0.66840000  0.82900000  1.0
  Li+  Li1  1  0.32900000  0.86840000  0.32900000  1.0
  Li+  Li1  1  0.32900000  0.86840000  0.82900000  1.0
  Li+  Li1  1  0.82900000  0.06840000  0.32900000  1.0
  Li+  Li1  1  0.82900000  0.06840000  0.82900000  1.0
  Li+  Li1  1  0.82900000  0.26840000  0.32900000  1.0
  Li+  Li1  1  0.82900000  0.26840000  0.82900000  1.0
  Li+  Li1  1  0.82900000  0.46840000  0.32900000  1.0
  Li+  Li1  1  0.82900000  0.46840000  0.82900000  1.0
  Li+  Li1  1  0.82900000  0.66840000  0.32900000  1.0
  Li+  Li1  1  0.82900000  0.66840000  0.82900000  1.0
  Li+  Li1  1  0.82900000  0.86840000  0.32900000  1.0
  Li+  Li1  1  0.82900000  0.86840000  0.82900000  1.0
  Li+  Li1  1  0.32900000  0.13160000  0.17100000  1.0
  Li+  Li1  1  0.32900000  0.13160000  0.67100000  1.0
  Li+  Li1  1  0.32900000  0.33160000  0.17100000  1.0
  Li+  Li1  1  0.32900000  0.33160000  0.67100000  1.0
  Li+  Li1  1  0.32900000  0.53160000  0.17100000  1.0
  Li+  Li1  1  0.32900000  0.53160000  0.67100000  1.0
  Li+  Li1  1  0.32900000  0.73160000  0.17100000  1.0
  Li+  Li1  1  0.32900000  0.73160000  0.67100000  1.0
  Li+  Li1  1  0.32900000  0.93160000  0.17100000  1.0
  Li+  Li1  1  0.32900000  0.93160000  0.67100000  1.0
  Li+  Li1  1  0.82900000  0.13160000  0.17100000  1.0
  Li+  Li1  1  0.82900000  0.13160000  0.67100000  1.0
  Li+  Li1  1  0.82900000  0.33160000  0.17100000  1.0
  Li+  Li1  1  0.82900000  0.33160000  0.67100000  1.0
  Li+  Li1  1  0.82900000  0.53160000  0.17100000  1.0
  Li+  Li1  1  0.82900000  0.53160000  0.67100000  1.0
  Li+  Li1  1  0.82900000  0.73160000  0.17100000  1.0
  Li+  Li1  1  0.82900000  0.73160000  0.67100000  1.0
  Li+  Li1  1  0.82900000  0.93160000  0.17100000  1.0
  Li+  Li1  1  0.82900000  0.93160000  0.67100000  1.0
  I-  I1  1  0.00000000  0.00000000  0.00000000  1.0
  I-  I1  1  0.00000000  0.00000000  0.50000000  1.0
  I-  I1  1  0.00000000  0.20000000  0.00000000  1.0
  I-  I1  1  0.00000000  0.20000000  0.50000000  1.0
  I-  I1  1  0.00000000  0.40000000  0.00000000  1.0
  I-  I1  1  0.00000000  0.40000000  0.50000000  1.0
  I-  I1  1  1.00000000  0.60000000  0.00000000  1.0
  I-  I1  1  1.00000000  0.60000000  0.50000000  1.0
  I-  I1  1  0.00000000  0.80000000  0.00000000  1.0
  I-  I1  1  0.00000000  0.80000000  0.50000000  1.0
  I-  I1  1  0.50000000  0.00000000  0.00000000  1.0
  I-  I1  1  0.50000000  0.00000000  0.50000000  1.0
  I-  I1  1  0.50000000  0.20000000  0.00000000  1.0
  I-  I1  1  0.50000000  0.20000000  0.50000000  1.0
  I-  I1  1  0.50000000  0.40000000  1.00000000  1.0
  I-  I1  1  0.50000000  0.40000000  0.50000000  1.0
  I-  I1  1  0.50000000  0.60000000  0.00000000  1.0
  I-  I1  1  0.50000000  0.60000000  0.50000000  1.0
  I-  I1  1  0.50000000  0.80000000  0.00000000  1.0
  I-  I1  1  0.50000000  0.80000000  0.50000000  1.0
  I-  I2  1  0.37500000  0.15000000  0.37500000  1.0
  I-  I2  1  0.37500000  0.15000000  0.87500000  1.0
  I-  I2  1  0.37500000  0.35000000  0.37500000  1.0
  I-  I2  1  0.37500000  0.35000000  0.87500000  1.0
  I-  I2  1  0.37500000  0.55000000  0.37500000  1.0
  I-  I2  1  0.37500000  0.55000000  0.87500000  1.0
  I-  I2  1  0.37500000  0.75000000  0.37500000  1.0
  I-  I2  1  0.37500000  0.75000000  0.87500000  1.0
  I-  I2  1  0.37500000  0.95000000  0.37500000  1.0
  I-  I2  1  0.37500000  0.95000000  0.87500000  1.0
  I-  I2  1  0.87500000  0.15000000  0.37500000  1.0
  I-  I2  1  0.87500000  0.15000000  0.87500000  1.0
  I-  I2  1  0.87500000  0.35000000  0.37500000  1.0
  I-  I2  1  0.87500000  0.35000000  0.87500000  1.0
  I-  I2  1  0.87500000  0.55000000  0.37500000  1.0
  I-  I2  1  0.87500000  0.55000000  0.87500000  1.0
  I-  I2  1  0.87500000  0.75000000  0.37500000  1.0
  I-  I2  1  0.87500000  0.75000000  0.87500000  1.0
  I-  I2  1  0.87500000  0.95000000  0.37500000  1.0
  I-  I2  1  0.87500000  0.95000000  0.87500000  1.0
  I-  I80  1  0.12500000  0.25000000  0.12500000  1.0
  I-  I80  1  0.12500000  0.25000000  0.62500000  1.0
  I-  I81  1  0.12500000  0.65000000  0.12500000  1.0
  I-  I81  1  0.12500000  0.65000000  0.62500000  1.0
  I-  I82  1  0.62500000  0.05000000  0.12500000  1.0
  I-  I82  1  0.62500000  0.05000000  0.62500000  1.0
  I-  I83  1  0.62500000  0.25000000  0.12500000  1.0
  I-  I83  1  0.62500000  0.25000000  0.62500000  1.0
  N3-  N84  1  0.62500000  0.45000000  0.12500000  1.0
  N3-  N84  1  0.62500000  0.45000000  0.62500000  1.0
  N3-  N85  1  0.62500000  0.85000000  0.12500000  1.0
  N3-  N85  1  0.62500000  0.85000000  0.62500000  1.0
  N3-  N1  1  0.25000000  0.10000000  0.25000000  1.0
  N3-  N1  1  0.25000000  0.10000000  0.75000000  1.0
  N3-  N1  1  0.25000000  0.30000000  0.25000000  1.0
  N3-  N1  1  0.25000000  0.30000000  0.75000000  1.0
  N3-  N1  1  0.25000000  0.50000000  0.25000000  1.0
  N3-  N1  1  0.25000000  0.50000000  0.75000000  1.0
  N3-  N1  1  0.25000000  0.70000000  0.25000000  1.0
  N3-  N1  1  0.25000000  0.70000000  0.75000000  1.0
  N3-  N1  1  0.25000000  0.90000000  0.25000000  1.0
  N3-  N1  1  0.25000000  0.90000000  0.75000000  1.0
  N3-  N1  1  0.75000000  0.10000000  0.25000000  1.0
  N3-  N1  1  0.75000000  0.10000000  0.75000000  1.0
  N3-  N1  1  0.75000000  0.30000000  0.25000000  1.0
  N3-  N1  1  0.75000000  0.30000000  0.75000000  1.0
  N3-  N1  1  0.75000000  0.50000000  0.25000000  1.0
  N3-  N1  1  0.75000000  0.50000000  0.75000000  1.0
  N3-  N1  1  0.75000000  0.70000000  0.25000000  1.0
  N3-  N1  1  0.75000000  0.70000000  0.75000000  1.0
  N3-  N1  1  0.75000000  0.90000000  0.25000000  1.0
  N3-  N1  1  0.75000000  0.90000000  0.75000000  1.0
