# generated using pymatgen
data_Li6PS5Br
_symmetry_space_group_name_H-M   'P 1'
_cell_length_a   14.21581615
_cell_length_b   14.21581615
_cell_length_c   14.21581615
_cell_angle_alpha   60.00000000
_cell_angle_beta   120.00000000
_cell_angle_gamma   120.00000000
_symmetry_Int_Tables_number   1
_chemical_formula_structural   Li6PS5Br
_chemical_formula_sum   'Li48 P8 S40 Br8'
_cell_volume   2031.42314730
_cell_formula_units_Z   8
loop_
 _symmetry_equiv_pos_site_id
 _symmetry_equiv_pos_as_xyz
  1  'x, y, z'
loop_
 _atom_type_symbol
 _atom_type_oxidation_number
  Li+  1.0
  P5+  5.0
  S2-  -2.0
  Br-  -1.0
loop_
 _atom_site_type_symbol
 _atom_site_label
 _atom_site_symmetry_multiplicity
 _atom_site_fract_x
 _atom_site_fract_y
 _atom_site_fract_z
 _atom_site_occupancy
  Li+  Li0  1  0.24150000  0.25850000  0.74150000  1.0
  Li+  Li1  1  0.00850000  0.25850000  0.00850000  1.0
  Li+  Li2  1  0.50850000  0.75850000  0.50850000  1.0
  Li+  Li3  1  0.74150000  0.99150000  0.24150000  1.0
  Li+  Li4  1  0.00850000  0.75850000  0.74150000  1.0
  Li+  Li5  1  0.50850000  0.75850000  0.24150000  1.0
  Li+  Li6  1  0.68035000  0.20545000  0.73745000  1.0
  Li+  Li7  1  0.68035000  0.70545000  0.23745000  1.0
  Li+  Li8  1  0.01251598  0.82089000  0.95323387  1.0
  Li+  Li9  1  0.51255000  0.81965000  0.45545000  1.0
  Li+  Li10  1  0.51255000  0.81965000  0.95545000  1.0
  Li+  Li11  1  0.51255000  0.31965000  0.95545000  1.0
  Li+  Li12  1  0.29275151  0.48667389  0.73791528  1.0
  Li+  Li13  1  0.29455000  0.48745000  0.23745000  1.0
  Li+  Li14  1  0.79570557  0.98645008  0.73690069  1.0
  Li+  Li15  1  0.79455000  0.48745000  0.73745000  1.0
  Li+  Li16  1  0.79455000  0.98745000  0.23745000  1.0
  Li+  Li17  1  0.79562598  0.48369151  0.23607145  1.0
  Li+  Li18  1  0.29104025  0.31658979  0.73672366  1.0
  Li+  Li19  1  0.29455000  0.81965000  0.23745000  1.0
  Li+  Li20  1  0.29455000  0.31965000  0.23745000  1.0
  Li+  Li21  1  0.79518647  0.81400661  0.73607223  1.0
  Li+  Li22  1  0.79455000  0.31965000  0.73745000  1.0
  Li+  Li23  1  0.79455000  0.31965000  0.23745000  1.0
  Li+  Li24  1  0.01255000  0.20545000  0.23745000  1.0
  Li+  Li25  1  0.51255000  0.20545000  0.73745000  1.0
  Li+  Li26  1  0.51255000  0.20545000  0.23745000  1.0
  Li+  Li27  1  0.01255000  0.31965000  0.73745000  1.0
  Li+  Li28  1  0.01255000  0.81965000  0.23745000  1.0
  Li+  Li29  1  0.01255000  0.31965000  0.23745000  1.0
  Li+  Li30  1  0.51255000  0.31965000  0.23745000  1.0
  Li+  Li31  1  0.01255000  0.70545000  0.56965000  1.0
  Li+  Li32  1  0.01255000  0.20545000  0.56965000  1.0
  Li+  Li33  1  0.51255000  0.20545000  0.06965000  1.0
  Li+  Li34  1  0.51255000  0.48745000  0.56965000  1.0
  Li+  Li35  1  0.18035000  0.98745000  0.73745000  1.0
  Li+  Li36  1  0.18035000  0.48745000  0.23745000  1.0
  Li+  Li37  1  0.01255000  0.48745000  0.45545000  1.0
  Li+  Li38  1  0.01255000  0.48745000  0.95545000  1.0
  Li+  Li39  1  0.51255000  0.98745000  0.45545000  1.0
  Li+  Li40  1  0.51255000  0.98745000  0.95545000  1.0
  Li+  Li41  1  0.29328597  0.98591806  0.57066742  1.0
  Li+  Li42  1  0.29977682  0.48752696  0.56874124  1.0
  Li+  Li43  1  0.29455000  0.98745000  0.06965000  1.0
  Li+  Li44  1  0.29455000  0.48745000  0.06965000  1.0
  Li+  Li45  1  0.79455000  0.98745000  0.06965000  1.0
  Li+  Li46  1  0.18035000  0.48745000  0.45545000  1.0
  Li+  Li47  1  0.68160770  0.98788492  0.95664095  1.0
  P5+  P48  1  0.25121300  0.75092311  0.50150353  1.0
  P5+  P49  1  0.24994054  0.24836173  0.49804190  1.0
  P5+  P50  1  0.25000000  0.75000000  0.00000000  1.0
  P5+  P51  1  0.24633117  0.25371865  0.99992619  1.0
  P5+  P52  1  0.75000000  0.75000000  0.50000000  1.0
  P5+  P53  1  0.75000000  0.25000000  0.50000000  1.0
  P5+  P54  1  0.75000000  0.75000000  0.00000000  1.0
  P5+  P55  1  0.74950910  0.24981863  0.00046190  1.0
  S2-  S56  1  0.30990000  0.69010000  0.67970000  1.0
  S2-  S57  1  0.30990000  0.19010000  0.67970000  1.0
  S2-  S58  1  0.30990000  0.69010000  0.17970000  1.0
  S2-  S59  1  0.30990000  0.19010000  0.17970000  1.0
  S2-  S60  1  0.80990000  0.69010000  0.67970000  1.0
  S2-  S61  1  0.81031557  0.19136242  0.68121465  1.0
  S2-  S62  1  0.81445426  0.68953236  0.17628312  1.0
  S2-  S63  1  0.80990000  0.19010000  0.17970000  1.0
  S2-  S64  1  0.30990000  0.69010000  0.44010000  1.0
  S2-  S65  1  0.30990000  0.19010000  0.44010000  1.0
  S2-  S66  1  0.30990000  0.69010000  0.94010000  1.0
  S2-  S67  1  0.30844938  0.18534713  0.93952088  1.0
  S2-  S68  1  0.80990000  0.69010000  0.44010000  1.0
  S2-  S69  1  0.80957459  0.18905004  0.44039003  1.0
  S2-  S70  1  0.80990000  0.69010000  0.94010000  1.0
  S2-  S71  1  0.80990000  0.19010000  0.94010000  1.0
  S2-  S72  1  0.31155897  0.93141427  0.44004304  1.0
  S2-  S73  1  0.30791061  0.43352148  0.43851667  1.0
  S2-  S74  1  0.30990000  0.92970000  0.94010000  1.0
  S2-  S75  1  0.30990000  0.42970000  0.94010000  1.0
  S2-  S76  1  0.80990000  0.92970000  0.44010000  1.0
  S2-  S77  1  0.80990000  0.42970000  0.44010000  1.0
  S2-  S78  1  0.80990000  0.92970000  0.94010000  1.0
  S2-  S79  1  0.80948323  0.43061826  0.93657666  1.0
  S2-  S80  1  0.07030000  0.69010000  0.44010000  1.0
  S2-  S81  1  0.07030000  0.19010000  0.44010000  1.0
  S2-  S82  1  0.07030000  0.69010000  0.94010000  1.0
  S2-  S83  1  0.07030000  0.19010000  0.94010000  1.0
  S2-  S84  1  0.57030000  0.69010000  0.44010000  1.0
  S2-  S85  1  0.57030000  0.19010000  0.44010000  1.0
  S2-  S86  1  0.57306541  0.69248669  0.93982151  1.0
  S2-  S87  1  0.57030000  0.19010000  0.94010000  1.0
  S2-  S88  1  0.00000000  0.00000000  0.75000000  1.0
  S2-  S89  1  0.00000000  0.50000000  0.25000000  1.0
  S2-  S90  1  0.37500000  0.62500000  0.37500000  1.0
  S2-  S91  1  0.37500000  0.12500000  0.37500000  1.0
  S2-  S92  1  0.37650791  0.12365277  0.87600684  1.0
  S2-  S93  1  0.87641448  0.62392929  0.37859756  1.0
  S2-  S94  1  0.87500000  0.12500000  0.37500000  1.0
  S2-  S95  1  0.87530808  0.12473502  0.87140760  1.0
  Br-  Br96  1  0.00000000  0.50000000  0.75000000  1.0
  Br-  Br97  1  0.00000000  0.00000000  0.25000000  1.0
  Br-  Br98  1  0.49537965  0.99922867  0.74329932  1.0
  Br-  Br99  1  0.50000000  0.50000000  0.75000000  1.0
  Br-  Br100  1  0.50000000  0.00000000  0.25000000  1.0
  Br-  Br101  1  0.49517675  0.49657671  0.25221151  1.0
  Br-  Br102  1  0.37500000  0.62500000  0.87500000  1.0
  Br-  Br103  1  0.87500000  0.62500000  0.87500000  1.0
