# generated using pymatgen
data_LiLaO2
_symmetry_space_group_name_H-M   'P 1'
_cell_length_a   11.69620000
_cell_length_b   18.63870000
_cell_length_c   11.74800000
_cell_angle_alpha   90.00000000
_cell_angle_beta   77.54700000
_cell_angle_gamma   90.00000000
_symmetry_Int_Tables_number   1
_chemical_formula_structural   LiLaO2
_chemical_formula_sum   'Li48 La48 O96'
_cell_volume   2500.83294176
_cell_formula_units_Z   48
loop_
 _symmetry_equiv_pos_site_id
 _symmetry_equiv_pos_as_xyz
  1  'x, y, z'
loop_
 _atom_type_symbol
 _atom_type_oxidation_number
  Li+  1.0
  La3+  3.0
  O2-  -2.0
loop_
 _atom_site_type_symbol
 _atom_site_label
 _atom_site_symmetry_multiplicity
 _atom_site_fract_x
 _atom_site_fract_y
 _atom_site_fract_z
 _atom_site_occupancy
  Li+  Li0  1  0.33779000  0.87540000  0.43000000  1.0
  Li+  Li1  1  0.33779000  0.54206667  0.43000000  1.0
  Li+  Li2  1  0.33374230  0.20971162  0.42988945  1.0
  Li+  Li3  1  0.33779000  0.87540000  0.93000000  1.0
  Li+  Li4  1  0.33779000  0.54206667  0.93000000  1.0
  Li+  Li5  1  0.33779000  0.20873333  0.93000000  1.0
  Li+  Li6  1  0.83779000  0.87540000  0.43000000  1.0
  Li+  Li7  1  0.83754940  0.54460013  0.43127804  1.0
  Li+  Li8  1  0.83329323  0.20957566  0.43325278  1.0
  Li+  Li9  1  0.83779000  0.87540000  0.93000000  1.0
  Li+  Li10  1  0.83779000  0.54206667  0.93000000  1.0
  Li+  Li11  1  0.83779000  0.20873333  0.93000000  1.0
  Li+  Li12  1  0.41221000  0.70873333  0.57000000  1.0
  Li+  Li13  1  0.41221000  0.37540000  0.57000000  1.0
  Li+  Li14  1  0.41221000  0.04206667  0.57000000  1.0
  Li+  Li15  1  0.41107029  0.70971014  0.07239027  1.0
  Li+  Li16  1  0.41221000  0.37540000  0.07000000  1.0
  Li+  Li17  1  0.41221000  0.04206667  0.07000000  1.0
  Li+  Li18  1  0.91221000  0.70873333  0.57000000  1.0
  Li+  Li19  1  0.91221000  0.37540000  0.57000000  1.0
  Li+  Li20  1  0.91470679  0.04109280  0.56747068  1.0
  Li+  Li21  1  0.91221000  0.70873333  0.07000000  1.0
  Li+  Li22  1  0.91165244  0.37604632  0.07032456  1.0
  Li+  Li23  1  0.91221000  0.04206667  0.07000000  1.0
  Li+  Li24  1  0.16221000  0.79126667  0.57000000  1.0
  Li+  Li25  1  0.16221000  0.45793333  0.57000000  1.0
  Li+  Li26  1  0.16221000  0.12460000  0.57000000  1.0
  Li+  Li27  1  0.16221000  0.79126667  0.07000000  1.0
  Li+  Li28  1  0.16384373  0.46089806  0.07081768  1.0
  Li+  Li29  1  0.16221000  0.12460000  0.07000000  1.0
  Li+  Li30  1  0.66122062  0.79126989  0.56723651  1.0
  Li+  Li31  1  0.66221000  0.45793333  0.57000000  1.0
  Li+  Li32  1  0.66375103  0.12742302  0.57050633  1.0
  Li+  Li33  1  0.66221000  0.79126667  0.07000000  1.0
  Li+  Li34  1  0.66221000  0.45793333  0.07000000  1.0
  Li+  Li35  1  0.66221000  0.12460000  0.07000000  1.0
  Li+  Li36  1  0.08779000  0.95793333  0.43000000  1.0
  Li+  Li37  1  0.08779000  0.62460000  0.43000000  1.0
  Li+  Li38  1  0.09006082  0.28834042  0.43041453  1.0
  Li+  Li39  1  0.08687576  0.95846503  0.93141158  1.0
  Li+  Li40  1  0.08779000  0.62460000  0.93000000  1.0
  Li+  Li41  1  0.08779000  0.29126667  0.93000000  1.0
  Li+  Li42  1  0.58779000  0.95793333  0.43000000  1.0
  Li+  Li43  1  0.58779000  0.62460000  0.43000000  1.0
  Li+  Li44  1  0.58779000  0.29126667  0.43000000  1.0
  Li+  Li45  1  0.58779000  0.95793333  0.93000000  1.0
  Li+  Li46  1  0.58821124  0.62606802  0.92897036  1.0
  Li+  Li47  1  0.58812506  0.29059388  0.92976564  1.0
  La3+  La48  1  0.40240000  0.85570000  0.64975000  1.0
  La3+  La49  1  0.40240000  0.52236667  0.64975000  1.0
  La3+  La50  1  0.40240000  0.18903333  0.64975000  1.0
  La3+  La51  1  0.40240000  0.85570000  0.14975000  1.0
  La3+  La52  1  0.40083369  0.52565724  0.14839104  1.0
  La3+  La53  1  0.40240000  0.18903333  0.14975000  1.0
  La3+  La54  1  0.90240000  0.85570000  0.64975000  1.0
  La3+  La55  1  0.90665104  0.52429246  0.65553536  1.0
  La3+  La56  1  0.90240000  0.18903333  0.64975000  1.0
  La3+  La57  1  0.90240000  0.85570000  0.14975000  1.0
  La3+  La58  1  0.90240000  0.52236667  0.14975000  1.0
  La3+  La59  1  0.90240000  0.18903333  0.14975000  1.0
  La3+  La60  1  0.34760000  0.68903333  0.35025000  1.0
  La3+  La61  1  0.34477025  0.35831551  0.35165761  1.0
  La3+  La62  1  0.34760000  0.02236667  0.35025000  1.0
  La3+  La63  1  0.34760000  0.68903333  0.85025000  1.0
  La3+  La64  1  0.34760000  0.35570000  0.85025000  1.0
  La3+  La65  1  0.34837947  0.02090029  0.85479541  1.0
  La3+  La66  1  0.84760000  0.68903333  0.35025000  1.0
  La3+  La67  1  0.84760000  0.35570000  0.35025000  1.0
  La3+  La68  1  0.84760000  0.02236667  0.35025000  1.0
  La3+  La69  1  0.84760000  0.68903333  0.85025000  1.0
  La3+  La70  1  0.84760000  0.35570000  0.85025000  1.0
  La3+  La71  1  0.84551097  0.02058851  0.85075622  1.0
  La3+  La72  1  0.09876359  0.80897740  0.35067266  1.0
  La3+  La73  1  0.09760000  0.47763333  0.35025000  1.0
  La3+  La74  1  0.09760000  0.14430000  0.35025000  1.0
  La3+  La75  1  0.09819781  0.81267595  0.85074276  1.0
  La3+  La76  1  0.09760000  0.47763333  0.85025000  1.0
  La3+  La77  1  0.09760000  0.14430000  0.85025000  1.0
  La3+  La78  1  0.59760000  0.81096667  0.35025000  1.0
  La3+  La79  1  0.59760000  0.47763333  0.35025000  1.0
  La3+  La80  1  0.59760000  0.14430000  0.35025000  1.0
  La3+  La81  1  0.59760000  0.81096667  0.85025000  1.0
  La3+  La82  1  0.59760000  0.47763333  0.85025000  1.0
  La3+  La83  1  0.59760000  0.14430000  0.85025000  1.0
  La3+  La84  1  0.15240000  0.97763333  0.64975000  1.0
  La3+  La85  1  0.15240000  0.64430000  0.64975000  1.0
  La3+  La86  1  0.15240000  0.31096667  0.64975000  1.0
  La3+  La87  1  0.15240000  0.97763333  0.14975000  1.0
  La3+  La88  1  0.15240000  0.64430000  0.14975000  1.0
  La3+  La89  1  0.15479936  0.31184732  0.14795086  1.0
  La3+  La90  1  0.65240000  0.97763333  0.64975000  1.0
  La3+  La91  1  0.65240000  0.64430000  0.64975000  1.0
  La3+  La92  1  0.65240000  0.31096667  0.64975000  1.0
  La3+  La93  1  0.65240000  0.97763333  0.14975000  1.0
  La3+  La94  1  0.65240000  0.64430000  0.14975000  1.0
  La3+  La95  1  0.65240000  0.31096667  0.14975000  1.0
  O2-  O96  1  0.49408500  0.92063333  0.29175000  1.0
  O2-  O97  1  0.49364798  0.58619214  0.29396639  1.0
  O2-  O98  1  0.48974858  0.25394200  0.29251460  1.0
  O2-  O99  1  0.49156334  0.91925381  0.79014781  1.0
  O2-  O100  1  0.50179011  0.58929895  0.78909585  1.0
  O2-  O101  1  0.49408500  0.25396667  0.79175000  1.0
  O2-  O102  1  0.99408500  0.92063333  0.29175000  1.0
  O2-  O103  1  0.99408500  0.58730000  0.29175000  1.0
  O2-  O104  1  0.99452703  0.25502226  0.29126251  1.0
  O2-  O105  1  0.99408500  0.92063333  0.79175000  1.0
  O2-  O106  1  0.99404562  0.58447550  0.79337813  1.0
  O2-  O107  1  0.99408500  0.25396667  0.79175000  1.0
  O2-  O108  1  0.26041138  0.75345365  0.70969262  1.0
  O2-  O109  1  0.25591500  0.42063333  0.70825000  1.0
  O2-  O110  1  0.25591500  0.08730000  0.70825000  1.0
  O2-  O111  1  0.25633346  0.75387864  0.21089149  1.0
  O2-  O112  1  0.25591500  0.42063333  0.20825000  1.0
  O2-  O113  1  0.25591500  0.08730000  0.20825000  1.0
  O2-  O114  1  0.76121281  0.74975828  0.70859041  1.0
  O2-  O115  1  0.75591500  0.42063333  0.70825000  1.0
  O2-  O116  1  0.75591500  0.08730000  0.70825000  1.0
  O2-  O117  1  0.75591500  0.75396667  0.20825000  1.0
  O2-  O118  1  0.75591500  0.42063333  0.20825000  1.0
  O2-  O119  1  0.75509918  0.08843770  0.21300940  1.0
  O2-  O120  1  0.00591500  0.74603333  0.70825000  1.0
  O2-  O121  1  0.00591500  0.41270000  0.70825000  1.0
  O2-  O122  1  0.00591500  0.07936667  0.70825000  1.0
  O2-  O123  1  0.00813758  0.74505243  0.21203462  1.0
  O2-  O124  1  0.00440183  0.41411951  0.20728508  1.0
  O2-  O125  1  0.00591500  0.07936667  0.20825000  1.0
  O2-  O126  1  0.50591500  0.74603333  0.70825000  1.0
  O2-  O127  1  0.50591500  0.41270000  0.70825000  1.0
  O2-  O128  1  0.50591500  0.07936667  0.70825000  1.0
  O2-  O129  1  0.50591500  0.74603333  0.20825000  1.0
  O2-  O130  1  0.50116580  0.41271833  0.20652907  1.0
  O2-  O131  1  0.50591500  0.07936667  0.20825000  1.0
  O2-  O132  1  0.24668257  0.91316547  0.29384340  1.0
  O2-  O133  1  0.24408500  0.57936667  0.29175000  1.0
  O2-  O134  1  0.24013744  0.24518578  0.29178023  1.0
  O2-  O135  1  0.24408500  0.91270000  0.79175000  1.0
  O2-  O136  1  0.24224706  0.57764178  0.79561730  1.0
  O2-  O137  1  0.24408500  0.24603333  0.79175000  1.0
  O2-  O138  1  0.74408500  0.91270000  0.29175000  1.0
  O2-  O139  1  0.74408500  0.57936667  0.29175000  1.0
  O2-  O140  1  0.74795958  0.24072161  0.29428493  1.0
  O2-  O141  1  0.74408500  0.91270000  0.79175000  1.0
  O2-  O142  1  0.74408500  0.57936667  0.79175000  1.0
  O2-  O143  1  0.74408500  0.24603333  0.79175000  1.0
  O2-  O144  1  0.10600928  0.87553015  0.53367838  1.0
  O2-  O145  1  0.10640000  0.54193333  0.53630000  1.0
  O2-  O146  1  0.10640000  0.20860000  0.53630000  1.0
  O2-  O147  1  0.10640000  0.87526667  0.03630000  1.0
  O2-  O148  1  0.10640000  0.54193333  0.03630000  1.0
  O2-  O149  1  0.10640000  0.20860000  0.03630000  1.0
  O2-  O150  1  0.60338092  0.87734985  0.53636783  1.0
  O2-  O151  1  0.60796578  0.53995999  0.54140998  1.0
  O2-  O152  1  0.60640000  0.20860000  0.53630000  1.0
  O2-  O153  1  0.60640000  0.87526667  0.03630000  1.0
  O2-  O154  1  0.60640000  0.54193333  0.03630000  1.0
  O2-  O155  1  0.60180306  0.20817838  0.03636007  1.0
  O2-  O156  1  0.14360000  0.70860000  0.46370000  1.0
  O2-  O157  1  0.14360000  0.37526667  0.46370000  1.0
  O2-  O158  1  0.14360000  0.04193333  0.46370000  1.0
  O2-  O159  1  0.14360000  0.70860000  0.96370000  1.0
  O2-  O160  1  0.14188755  0.37484800  0.96176247  1.0
  O2-  O161  1  0.14360000  0.04193333  0.96370000  1.0
  O2-  O162  1  0.64360000  0.70860000  0.46370000  1.0
  O2-  O163  1  0.64444066  0.37327217  0.46482373  1.0
  O2-  O164  1  0.64360000  0.04193333  0.46370000  1.0
  O2-  O165  1  0.64360000  0.70860000  0.96370000  1.0
  O2-  O166  1  0.64360000  0.37526667  0.96370000  1.0
  O2-  O167  1  0.64360000  0.04193333  0.96370000  1.0
  O2-  O168  1  0.39029552  0.79197467  0.46651604  1.0
  O2-  O169  1  0.39360000  0.45806667  0.46370000  1.0
  O2-  O170  1  0.39360000  0.12473333  0.46370000  1.0
  O2-  O171  1  0.39360000  0.79140000  0.96370000  1.0
  O2-  O172  1  0.39360000  0.45806667  0.96370000  1.0
  O2-  O173  1  0.39660628  0.12441875  0.96162932  1.0
  O2-  O174  1  0.89360000  0.79140000  0.46370000  1.0
  O2-  O175  1  0.89360000  0.45806667  0.46370000  1.0
  O2-  O176  1  0.89360000  0.12473333  0.46370000  1.0
  O2-  O177  1  0.89360000  0.79140000  0.96370000  1.0
  O2-  O178  1  0.89360000  0.45806667  0.96370000  1.0
  O2-  O179  1  0.89360000  0.12473333  0.96370000  1.0
  O2-  O180  1  0.35640000  0.95806667  0.53630000  1.0
  O2-  O181  1  0.35640000  0.62473333  0.53630000  1.0
  O2-  O182  1  0.35640000  0.29140000  0.53630000  1.0
  O2-  O183  1  0.35640000  0.95806667  0.03630000  1.0
  O2-  O184  1  0.35640000  0.62473333  0.03630000  1.0
  O2-  O185  1  0.35640000  0.29140000  0.03630000  1.0
  O2-  O186  1  0.85640000  0.95806667  0.53630000  1.0
  O2-  O187  1  0.85640000  0.62473333  0.53630000  1.0
  O2-  O188  1  0.85503716  0.28787636  0.53700858  1.0
  O2-  O189  1  0.85640000  0.95806667  0.03630000  1.0
  O2-  O190  1  0.85285454  0.61814289  0.03340238  1.0
  O2-  O191  1  0.85640000  0.29140000  0.03630000  1.0
