# generated using pymatgen
data_LiLaO2
_symmetry_space_group_name_H-M   'P 1'
_cell_length_a   11.71157076
_cell_length_b   11.65993138
_cell_length_c   18.58090346
_cell_angle_alpha   90.00000000
_cell_angle_beta   90.00000000
_cell_angle_gamma   102.45300000
_symmetry_Int_Tables_number   1
_chemical_formula_structural   LiLaO2
_chemical_formula_sum   'Li48 La48 O96'
_cell_volume   2477.64059186
_cell_formula_units_Z   48
loop_
 _symmetry_equiv_pos_site_id
 _symmetry_equiv_pos_as_xyz
  1  'x, y, z'
loop_
 _atom_type_symbol
 _atom_type_oxidation_number
  Li+  1.0
  La3+  3.0
  O2-  -2.0
loop_
 _atom_site_type_symbol
 _atom_site_label
 _atom_site_symmetry_multiplicity
 _atom_site_fract_x
 _atom_site_fract_y
 _atom_site_fract_z
 _atom_site_occupancy
  Li+  Li0  1  0.68000000  0.32887667  0.12460000  1.0
  Li+  Li1  1  0.68000000  0.32887667  0.45793333  1.0
  Li+  Li2  1  0.68000000  0.32887667  0.79126667  1.0
  Li+  Li3  1  0.18000000  0.32887667  0.12460000  1.0
  Li+  Li4  1  0.18000000  0.32887667  0.45793333  1.0
  Li+  Li5  1  0.18000000  0.32887667  0.79126667  1.0
  Li+  Li6  1  0.68000000  0.82887667  0.12460000  1.0
  Li+  Li7  1  0.68000000  0.82887667  0.45793333  1.0
  Li+  Li8  1  0.68000000  0.82887667  0.79126667  1.0
  Li+  Li9  1  0.18000000  0.82887667  0.12460000  1.0
  Li+  Li10  1  0.18000000  0.82887667  0.45793333  1.0
  Li+  Li11  1  0.18000000  0.82887667  0.79126667  1.0
  Li+  Li12  1  0.82000000  0.25445667  0.29126667  1.0
  Li+  Li13  1  0.82000000  0.25445667  0.62460000  1.0
  Li+  Li14  1  0.82000000  0.25445667  0.95793333  1.0
  Li+  Li15  1  0.32000000  0.25445667  0.29126667  1.0
  Li+  Li16  1  0.32000000  0.25445667  0.62460000  1.0
  Li+  Li17  1  0.32000000  0.25445667  0.95793333  1.0
  Li+  Li18  1  0.82000000  0.75445667  0.29126667  1.0
  Li+  Li19  1  0.82000000  0.75445667  0.62460000  1.0
  Li+  Li20  1  0.82000000  0.75445667  0.95793333  1.0
  Li+  Li21  1  0.32000000  0.75445667  0.29126667  1.0
  Li+  Li22  1  0.32000000  0.75445667  0.62460000  1.0
  Li+  Li23  1  0.32000000  0.75445667  0.95793333  1.0
  Li+  Li24  1  0.82000000  0.50445667  0.20873333  1.0
  Li+  Li25  1  0.82000000  0.50445667  0.54206667  1.0
  Li+  Li26  1  0.82000000  0.50445667  0.87540000  1.0
  Li+  Li27  1  0.32000000  0.50445667  0.20873333  1.0
  Li+  Li28  1  0.32000000  0.50445667  0.54206667  1.0
  Li+  Li29  1  0.32000000  0.50445667  0.87540000  1.0
  Li+  Li30  1  0.82000000  0.00445667  0.20873333  1.0
  Li+  Li31  1  0.82000000  0.00445667  0.54206667  1.0
  Li+  Li32  1  0.82000000  0.00445667  0.87540000  1.0
  Li+  Li33  1  0.32000000  0.00445667  0.20873333  1.0
  Li+  Li34  1  0.32000000  0.00445667  0.54206667  1.0
  Li+  Li35  1  0.32000000  0.00445667  0.87540000  1.0
  Li+  Li36  1  0.68000000  0.57887667  0.04206667  1.0
  Li+  Li37  1  0.68000000  0.57887667  0.37540000  1.0
  Li+  Li38  1  0.68000000  0.57887667  0.70873333  1.0
  Li+  Li39  1  0.18000000  0.57887667  0.04206667  1.0
  Li+  Li40  1  0.18000000  0.57887667  0.37540000  1.0
  Li+  Li41  1  0.18000000  0.57887667  0.70873333  1.0
  Li+  Li42  1  0.68000000  0.07887667  0.04206667  1.0
  Li+  Li43  1  0.68000000  0.07887667  0.37540000  1.0
  Li+  Li44  1  0.68000000  0.07887667  0.70873333  1.0
  Li+  Li45  1  0.18000000  0.07887667  0.04206667  1.0
  Li+  Li46  1  0.18000000  0.07887667  0.37540000  1.0
  Li+  Li47  1  0.18000000  0.07887667  0.70873333  1.0
  La3+  La48  1  0.89975000  0.26426667  0.14430000  1.0
  La3+  La49  1  0.89975000  0.26426667  0.47763333  1.0
  La3+  La50  1  0.89975000  0.26426667  0.81096667  1.0
  La3+  La51  1  0.39975000  0.26426667  0.14430000  1.0
  La3+  La52  1  0.39975000  0.26426667  0.47763333  1.0
  La3+  La53  1  0.39975000  0.26426667  0.81096667  1.0
  La3+  La54  1  0.89975000  0.76426667  0.14430000  1.0
  La3+  La55  1  0.89975000  0.76426667  0.47763333  1.0
  La3+  La56  1  0.89975000  0.76426667  0.81096667  1.0
  La3+  La57  1  0.39975000  0.76426667  0.14430000  1.0
  La3+  La58  1  0.39975000  0.76426667  0.47763333  1.0
  La3+  La59  1  0.39975000  0.76426667  0.81096667  1.0
  La3+  La60  1  0.60025000  0.31906667  0.31096667  1.0
  La3+  La61  1  0.60025000  0.31906667  0.64430000  1.0
  La3+  La62  1  0.60025000  0.31906667  0.97763333  1.0
  La3+  La63  1  0.10025000  0.31906667  0.31096667  1.0
  La3+  La64  1  0.10025000  0.31906667  0.64430000  1.0
  La3+  La65  1  0.10025000  0.31906667  0.97763333  1.0
  La3+  La66  1  0.60025000  0.81906667  0.31096667  1.0
  La3+  La67  1  0.60025000  0.81906667  0.64430000  1.0
  La3+  La68  1  0.60025000  0.81906667  0.97763333  1.0
  La3+  La69  1  0.10025000  0.81906667  0.31096667  1.0
  La3+  La70  1  0.10025000  0.81906667  0.64430000  1.0
  La3+  La71  1  0.10025000  0.81906667  0.97763333  1.0
  La3+  La72  1  0.60025000  0.56906667  0.18903333  1.0
  La3+  La73  1  0.60025000  0.56906667  0.52236667  1.0
  La3+  La74  1  0.60025000  0.56906667  0.85570000  1.0
  La3+  La75  1  0.10025000  0.56906667  0.18903333  1.0
  La3+  La76  1  0.10025000  0.56906667  0.52236667  1.0
  La3+  La77  1  0.10025000  0.56906667  0.85570000  1.0
  La3+  La78  1  0.60025000  0.06906667  0.18903333  1.0
  La3+  La79  1  0.60025000  0.06906667  0.52236667  1.0
  La3+  La80  1  0.60025000  0.06906667  0.85570000  1.0
  La3+  La81  1  0.10025000  0.06906667  0.18903333  1.0
  La3+  La82  1  0.10025000  0.06906667  0.52236667  1.0
  La3+  La83  1  0.10025000  0.06906667  0.85570000  1.0
  La3+  La84  1  0.89975000  0.51426667  0.02236667  1.0
  La3+  La85  1  0.89975000  0.51426667  0.35570000  1.0
  La3+  La86  1  0.89975000  0.51426667  0.68903333  1.0
  La3+  La87  1  0.39975000  0.51426667  0.02236667  1.0
  La3+  La88  1  0.39975000  0.51426667  0.35570000  1.0
  La3+  La89  1  0.39975000  0.51426667  0.68903333  1.0
  La3+  La90  1  0.89975000  0.01426667  0.02236667  1.0
  La3+  La91  1  0.89975000  0.01426667  0.35570000  1.0
  La3+  La92  1  0.89975000  0.01426667  0.68903333  1.0
  La3+  La93  1  0.39975000  0.01426667  0.02236667  1.0
  La3+  La94  1  0.39975000  0.01426667  0.35570000  1.0
  La3+  La95  1  0.39975000  0.01426667  0.68903333  1.0
  O2-  O96  1  0.54175000  0.17258167  0.07936667  1.0
  O2-  O97  1  0.54175000  0.17258167  0.41270000  1.0
  O2-  O98  1  0.54175000  0.17258167  0.74603333  1.0
  O2-  O99  1  0.04175000  0.17258167  0.07936667  1.0
  O2-  O100  1  0.04175000  0.17258167  0.41270000  1.0
  O2-  O101  1  0.04175000  0.17258167  0.74603333  1.0
  O2-  O102  1  0.54175000  0.67258167  0.07936667  1.0
  O2-  O103  1  0.54175000  0.67258167  0.41270000  1.0
  O2-  O104  1  0.54175000  0.67258167  0.74603333  1.0
  O2-  O105  1  0.04175000  0.67258167  0.07936667  1.0
  O2-  O106  1  0.04175000  0.67258167  0.41270000  1.0
  O2-  O107  1  0.04175000  0.67258167  0.74603333  1.0
  O2-  O108  1  0.95825000  0.41075167  0.24603333  1.0
  O2-  O109  1  0.95825000  0.41075167  0.57936667  1.0
  O2-  O110  1  0.95825000  0.41075167  0.91270000  1.0
  O2-  O111  1  0.45825000  0.41075167  0.24603333  1.0
  O2-  O112  1  0.45825000  0.41075167  0.57936667  1.0
  O2-  O113  1  0.45825000  0.41075167  0.91270000  1.0
  O2-  O114  1  0.95825000  0.91075167  0.24603333  1.0
  O2-  O115  1  0.95825000  0.91075167  0.57936667  1.0
  O2-  O116  1  0.95825000  0.91075167  0.91270000  1.0
  O2-  O117  1  0.45825000  0.91075167  0.24603333  1.0
  O2-  O118  1  0.45825000  0.91075167  0.57936667  1.0
  O2-  O119  1  0.45825000  0.91075167  0.91270000  1.0
  O2-  O120  1  0.95825000  0.66075167  0.25396667  1.0
  O2-  O121  1  0.95825000  0.66075167  0.58730000  1.0
  O2-  O122  1  0.95825000  0.66075167  0.92063333  1.0
  O2-  O123  1  0.45825000  0.66075167  0.25396667  1.0
  O2-  O124  1  0.45825000  0.66075167  0.58730000  1.0
  O2-  O125  1  0.45825000  0.66075167  0.92063333  1.0
  O2-  O126  1  0.95825000  0.16075167  0.25396667  1.0
  O2-  O127  1  0.95825000  0.16075167  0.58730000  1.0
  O2-  O128  1  0.95825000  0.16075167  0.92063333  1.0
  O2-  O129  1  0.45825000  0.16075167  0.25396667  1.0
  O2-  O130  1  0.45825000  0.16075167  0.58730000  1.0
  O2-  O131  1  0.45825000  0.16075167  0.92063333  1.0
  O2-  O132  1  0.54175000  0.42258167  0.08730000  1.0
  O2-  O133  1  0.54175000  0.42258167  0.42063333  1.0
  O2-  O134  1  0.54175000  0.42258167  0.75396667  1.0
  O2-  O135  1  0.04175000  0.42258167  0.08730000  1.0
  O2-  O136  1  0.04175000  0.42258167  0.42063333  1.0
  O2-  O137  1  0.04175000  0.42258167  0.75396667  1.0
  O2-  O138  1  0.54175000  0.92258167  0.08730000  1.0
  O2-  O139  1  0.54175000  0.92258167  0.42063333  1.0
  O2-  O140  1  0.54175000  0.92258167  0.75396667  1.0
  O2-  O141  1  0.04175000  0.92258167  0.08730000  1.0
  O2-  O142  1  0.04175000  0.92258167  0.42063333  1.0
  O2-  O143  1  0.04175000  0.92258167  0.75396667  1.0
  O2-  O144  1  0.78630000  0.56026667  0.12473333  1.0
  O2-  O145  1  0.78630000  0.56026667  0.45806667  1.0
  O2-  O146  1  0.78630000  0.56026667  0.79140000  1.0
  O2-  O147  1  0.28630000  0.56026667  0.12473333  1.0
  O2-  O148  1  0.28630000  0.56026667  0.45806667  1.0
  O2-  O149  1  0.28630000  0.56026667  0.79140000  1.0
  O2-  O150  1  0.78630000  0.06026667  0.12473333  1.0
  O2-  O151  1  0.78630000  0.06026667  0.45806667  1.0
  O2-  O152  1  0.78630000  0.06026667  0.79140000  1.0
  O2-  O153  1  0.28630000  0.06026667  0.12473333  1.0
  O2-  O154  1  0.28630000  0.06026667  0.45806667  1.0
  O2-  O155  1  0.28630000  0.06026667  0.79140000  1.0
  O2-  O156  1  0.71370000  0.52306667  0.29140000  1.0
  O2-  O157  1  0.71370000  0.52306667  0.62473333  1.0
  O2-  O158  1  0.71370000  0.52306667  0.95806667  1.0
  O2-  O159  1  0.21370000  0.52306667  0.29140000  1.0
  O2-  O160  1  0.21370000  0.52306667  0.62473333  1.0
  O2-  O161  1  0.21370000  0.52306667  0.95806667  1.0
  O2-  O162  1  0.71370000  0.02306667  0.29140000  1.0
  O2-  O163  1  0.71370000  0.02306667  0.62473333  1.0
  O2-  O164  1  0.71370000  0.02306667  0.95806667  1.0
  O2-  O165  1  0.21370000  0.02306667  0.29140000  1.0
  O2-  O166  1  0.21370000  0.02306667  0.62473333  1.0
  O2-  O167  1  0.21370000  0.02306667  0.95806667  1.0
  O2-  O168  1  0.71370000  0.27306667  0.20860000  1.0
  O2-  O169  1  0.71370000  0.27306667  0.54193333  1.0
  O2-  O170  1  0.71370000  0.27306667  0.87526667  1.0
  O2-  O171  1  0.21370000  0.27306667  0.20860000  1.0
  O2-  O172  1  0.21370000  0.27306667  0.54193333  1.0
  O2-  O173  1  0.21370000  0.27306667  0.87526667  1.0
  O2-  O174  1  0.71370000  0.77306667  0.20860000  1.0
  O2-  O175  1  0.71370000  0.77306667  0.54193333  1.0
  O2-  O176  1  0.71370000  0.77306667  0.87526667  1.0
  O2-  O177  1  0.21370000  0.77306667  0.20860000  1.0
  O2-  O178  1  0.21370000  0.77306667  0.54193333  1.0
  O2-  O179  1  0.21370000  0.77306667  0.87526667  1.0
  O2-  O180  1  0.78630000  0.31026667  0.04193333  1.0
  O2-  O181  1  0.78630000  0.31026667  0.37526667  1.0
  O2-  O182  1  0.78630000  0.31026667  0.70860000  1.0
  O2-  O183  1  0.28630000  0.31026667  0.04193333  1.0
  O2-  O184  1  0.28630000  0.31026667  0.37526667  1.0
  O2-  O185  1  0.28630000  0.31026667  0.70860000  1.0
  O2-  O186  1  0.78630000  0.81026667  0.04193333  1.0
  O2-  O187  1  0.78630000  0.81026667  0.37526667  1.0
  O2-  O188  1  0.78630000  0.81026667  0.70860000  1.0
  O2-  O189  1  0.28630000  0.81026667  0.04193333  1.0
  O2-  O190  1  0.28630000  0.81026667  0.37526667  1.0
  O2-  O191  1  0.28630000  0.81026667  0.70860000  1.0
