# generated using pymatgen
data_LiLaO2
_symmetry_space_group_name_H-M   'P 1'
_cell_length_a   11.69620000
_cell_length_b   11.74800000
_cell_length_c   18.63870000
_cell_angle_alpha   90.00000000
_cell_angle_beta   90.00000000
_cell_angle_gamma   102.45300000
_symmetry_Int_Tables_number   1
_chemical_formula_structural   LiLaO2
_chemical_formula_sum   'Li48 La48 O96'
_cell_volume   2500.83294176
_cell_formula_units_Z   48
loop_
 _symmetry_equiv_pos_site_id
 _symmetry_equiv_pos_as_xyz
  1  'x, y, z'
loop_
 _atom_type_symbol
 _atom_type_oxidation_number
  Li+  1.0
  La3+  3.0
  O2-  -2.0
loop_
 _atom_site_type_symbol
 _atom_site_label
 _atom_site_symmetry_multiplicity
 _atom_site_fract_x
 _atom_site_fract_y
 _atom_site_fract_z
 _atom_site_occupancy
  Li+  Li1  1  0.33779000  0.32000000  0.12460000  1.0
  Li+  Li1  1  0.33779000  0.32000000  0.45793333  1.0
  Li+  Li1  1  0.33779000  0.32000000  0.79126667  1.0
  Li+  Li1  1  0.33779000  0.82000000  0.12460000  1.0
  Li+  Li1  1  0.33779000  0.82000000  0.45793333  1.0
  Li+  Li1  1  0.33779000  0.82000000  0.79126667  1.0
  Li+  Li1  1  0.83779000  0.32000000  0.12460000  1.0
  Li+  Li1  1  0.83779000  0.32000000  0.45793333  1.0
  Li+  Li1  1  0.83779000  0.32000000  0.79126667  1.0
  Li+  Li1  1  0.83779000  0.82000000  0.12460000  1.0
  Li+  Li1  1  0.83779000  0.82000000  0.45793333  1.0
  Li+  Li1  1  0.83779000  0.82000000  0.79126667  1.0
  Li+  Li1  1  0.41221000  0.18000000  0.29126667  1.0
  Li+  Li1  1  0.41221000  0.18000000  0.62460000  1.0
  Li+  Li1  1  0.41221000  0.18000000  0.95793333  1.0
  Li+  Li1  1  0.41221000  0.68000000  0.29126667  1.0
  Li+  Li1  1  0.41221000  0.68000000  0.62460000  1.0
  Li+  Li1  1  0.41221000  0.68000000  0.95793333  1.0
  Li+  Li1  1  0.91221000  0.18000000  0.29126667  1.0
  Li+  Li1  1  0.91221000  0.18000000  0.62460000  1.0
  Li+  Li1  1  0.91221000  0.18000000  0.95793333  1.0
  Li+  Li1  1  0.91221000  0.68000000  0.29126667  1.0
  Li+  Li1  1  0.91221000  0.68000000  0.62460000  1.0
  Li+  Li1  1  0.91221000  0.68000000  0.95793333  1.0
  Li+  Li1  1  0.16221000  0.18000000  0.20873333  1.0
  Li+  Li1  1  0.16221000  0.18000000  0.54206667  1.0
  Li+  Li1  1  0.16221000  0.18000000  0.87540000  1.0
  Li+  Li1  1  0.16221000  0.68000000  0.20873333  1.0
  Li+  Li1  1  0.16221000  0.68000000  0.54206667  1.0
  Li+  Li1  1  0.16221000  0.68000000  0.87540000  1.0
  Li+  Li1  1  0.66221000  0.18000000  0.20873333  1.0
  Li+  Li1  1  0.66221000  0.18000000  0.54206667  1.0
  Li+  Li1  1  0.66221000  0.18000000  0.87540000  1.0
  Li+  Li1  1  0.66221000  0.68000000  0.20873333  1.0
  Li+  Li1  1  0.66221000  0.68000000  0.54206667  1.0
  Li+  Li1  1  0.66221000  0.68000000  0.87540000  1.0
  Li+  Li1  1  0.08779000  0.32000000  0.04206667  1.0
  Li+  Li1  1  0.08779000  0.32000000  0.37540000  1.0
  Li+  Li1  1  0.08779000  0.32000000  0.70873333  1.0
  Li+  Li1  1  0.08779000  0.82000000  0.04206667  1.0
  Li+  Li1  1  0.08779000  0.82000000  0.37540000  1.0
  Li+  Li1  1  0.08779000  0.82000000  0.70873333  1.0
  Li+  Li1  1  0.58779000  0.32000000  0.04206667  1.0
  Li+  Li1  1  0.58779000  0.32000000  0.37540000  1.0
  Li+  Li1  1  0.58779000  0.32000000  0.70873333  1.0
  Li+  Li1  1  0.58779000  0.82000000  0.04206667  1.0
  Li+  Li1  1  0.58779000  0.82000000  0.37540000  1.0
  Li+  Li1  1  0.58779000  0.82000000  0.70873333  1.0
  La3+  La1  1  0.40240000  0.10025000  0.14430000  1.0
  La3+  La1  1  0.40240000  0.10025000  0.47763333  1.0
  La3+  La1  1  0.40240000  0.10025000  0.81096667  1.0
  La3+  La1  1  0.40240000  0.60025000  0.14430000  1.0
  La3+  La1  1  0.40240000  0.60025000  0.47763333  1.0
  La3+  La1  1  0.40240000  0.60025000  0.81096667  1.0
  La3+  La1  1  0.90240000  0.10025000  0.14430000  1.0
  La3+  La1  1  0.90240000  0.10025000  0.47763333  1.0
  La3+  La1  1  0.90240000  0.10025000  0.81096667  1.0
  La3+  La1  1  0.90240000  0.60025000  0.14430000  1.0
  La3+  La1  1  0.90240000  0.60025000  0.47763333  1.0
  La3+  La1  1  0.90240000  0.60025000  0.81096667  1.0
  La3+  La1  1  0.34760000  0.39975000  0.31096667  1.0
  La3+  La1  1  0.34760000  0.39975000  0.64430000  1.0
  La3+  La1  1  0.34760000  0.39975000  0.97763333  1.0
  La3+  La1  1  0.34760000  0.89975000  0.31096667  1.0
  La3+  La1  1  0.34760000  0.89975000  0.64430000  1.0
  La3+  La1  1  0.34760000  0.89975000  0.97763333  1.0
  La3+  La1  1  0.84760000  0.39975000  0.31096667  1.0
  La3+  La1  1  0.84760000  0.39975000  0.64430000  1.0
  La3+  La1  1  0.84760000  0.39975000  0.97763333  1.0
  La3+  La1  1  0.84760000  0.89975000  0.31096667  1.0
  La3+  La1  1  0.84760000  0.89975000  0.64430000  1.0
  La3+  La1  1  0.84760000  0.89975000  0.97763333  1.0
  La3+  La1  1  0.09760000  0.39975000  0.18903333  1.0
  La3+  La1  1  0.09760000  0.39975000  0.52236667  1.0
  La3+  La1  1  0.09760000  0.39975000  0.85570000  1.0
  La3+  La1  1  0.09760000  0.89975000  0.18903333  1.0
  La3+  La1  1  0.09760000  0.89975000  0.52236667  1.0
  La3+  La1  1  0.09760000  0.89975000  0.85570000  1.0
  La3+  La1  1  0.59760000  0.39975000  0.18903333  1.0
  La3+  La1  1  0.59760000  0.39975000  0.52236667  1.0
  La3+  La1  1  0.59760000  0.39975000  0.85570000  1.0
  La3+  La1  1  0.59760000  0.89975000  0.18903333  1.0
  La3+  La1  1  0.59760000  0.89975000  0.52236667  1.0
  La3+  La1  1  0.59760000  0.89975000  0.85570000  1.0
  La3+  La1  1  0.15240000  0.10025000  0.02236667  1.0
  La3+  La1  1  0.15240000  0.10025000  0.35570000  1.0
  La3+  La1  1  0.15240000  0.10025000  0.68903333  1.0
  La3+  La1  1  0.15240000  0.60025000  0.02236667  1.0
  La3+  La1  1  0.15240000  0.60025000  0.35570000  1.0
  La3+  La1  1  0.15240000  0.60025000  0.68903333  1.0
  La3+  La1  1  0.65240000  0.10025000  0.02236667  1.0
  La3+  La1  1  0.65240000  0.10025000  0.35570000  1.0
  La3+  La1  1  0.65240000  0.10025000  0.68903333  1.0
  La3+  La1  1  0.65240000  0.60025000  0.02236667  1.0
  La3+  La1  1  0.65240000  0.60025000  0.35570000  1.0
  La3+  La1  1  0.65240000  0.60025000  0.68903333  1.0
  O2-  O1  1  0.49408500  0.45825000  0.07936667  1.0
  O2-  O1  1  0.49408500  0.45825000  0.41270000  1.0
  O2-  O1  1  0.49408500  0.45825000  0.74603333  1.0
  O2-  O1  1  0.49408500  0.95825000  0.07936667  1.0
  O2-  O1  1  0.49408500  0.95825000  0.41270000  1.0
  O2-  O1  1  0.49408500  0.95825000  0.74603333  1.0
  O2-  O1  1  0.99408500  0.45825000  0.07936667  1.0
  O2-  O1  1  0.99408500  0.45825000  0.41270000  1.0
  O2-  O1  1  0.99408500  0.45825000  0.74603333  1.0
  O2-  O1  1  0.99408500  0.95825000  0.07936667  1.0
  O2-  O1  1  0.99408500  0.95825000  0.41270000  1.0
  O2-  O1  1  0.99408500  0.95825000  0.74603333  1.0
  O2-  O1  1  0.25591500  0.04175000  0.24603333  1.0
  O2-  O1  1  0.25591500  0.04175000  0.57936667  1.0
  O2-  O1  1  0.25591500  0.04175000  0.91270000  1.0
  O2-  O1  1  0.25591500  0.54175000  0.24603333  1.0
  O2-  O1  1  0.25591500  0.54175000  0.57936667  1.0
  O2-  O1  1  0.25591500  0.54175000  0.91270000  1.0
  O2-  O1  1  0.75591500  0.04175000  0.24603333  1.0
  O2-  O1  1  0.75591500  0.04175000  0.57936667  1.0
  O2-  O1  1  0.75591500  0.04175000  0.91270000  1.0
  O2-  O1  1  0.75591500  0.54175000  0.24603333  1.0
  O2-  O1  1  0.75591500  0.54175000  0.57936667  1.0
  O2-  O1  1  0.75591500  0.54175000  0.91270000  1.0
  O2-  O1  1  0.00591500  0.04175000  0.25396667  1.0
  O2-  O1  1  0.00591500  0.04175000  0.58730000  1.0
  O2-  O1  1  0.00591500  0.04175000  0.92063333  1.0
  O2-  O1  1  0.00591500  0.54175000  0.25396667  1.0
  O2-  O1  1  0.00591500  0.54175000  0.58730000  1.0
  O2-  O1  1  0.00591500  0.54175000  0.92063333  1.0
  O2-  O1  1  0.50591500  0.04175000  0.25396667  1.0
  O2-  O1  1  0.50591500  0.04175000  0.58730000  1.0
  O2-  O1  1  0.50591500  0.04175000  0.92063333  1.0
  O2-  O1  1  0.50591500  0.54175000  0.25396667  1.0
  O2-  O1  1  0.50591500  0.54175000  0.58730000  1.0
  O2-  O1  1  0.50591500  0.54175000  0.92063333  1.0
  O2-  O1  1  0.24408500  0.45825000  0.08730000  1.0
  O2-  O1  1  0.24408500  0.45825000  0.42063333  1.0
  O2-  O1  1  0.24408500  0.45825000  0.75396667  1.0
  O2-  O1  1  0.24408500  0.95825000  0.08730000  1.0
  O2-  O1  1  0.24408500  0.95825000  0.42063333  1.0
  O2-  O1  1  0.24408500  0.95825000  0.75396667  1.0
  O2-  O1  1  0.74408500  0.45825000  0.08730000  1.0
  O2-  O1  1  0.74408500  0.45825000  0.42063333  1.0
  O2-  O1  1  0.74408500  0.45825000  0.75396667  1.0
  O2-  O1  1  0.74408500  0.95825000  0.08730000  1.0
  O2-  O1  1  0.74408500  0.95825000  0.42063333  1.0
  O2-  O1  1  0.74408500  0.95825000  0.75396667  1.0
  O2-  O2  1  0.10640000  0.21370000  0.12473333  1.0
  O2-  O2  1  0.10640000  0.21370000  0.45806667  1.0
  O2-  O2  1  0.10640000  0.21370000  0.79140000  1.0
  O2-  O2  1  0.10640000  0.71370000  0.12473333  1.0
  O2-  O2  1  0.10640000  0.71370000  0.45806667  1.0
  O2-  O2  1  0.10640000  0.71370000  0.79140000  1.0
  O2-  O2  1  0.60640000  0.21370000  0.12473333  1.0
  O2-  O2  1  0.60640000  0.21370000  0.45806667  1.0
  O2-  O2  1  0.60640000  0.21370000  0.79140000  1.0
  O2-  O2  1  0.60640000  0.71370000  0.12473333  1.0
  O2-  O2  1  0.60640000  0.71370000  0.45806667  1.0
  O2-  O2  1  0.60640000  0.71370000  0.79140000  1.0
  O2-  O2  1  0.14360000  0.28630000  0.29140000  1.0
  O2-  O2  1  0.14360000  0.28630000  0.62473333  1.0
  O2-  O2  1  0.14360000  0.28630000  0.95806667  1.0
  O2-  O2  1  0.14360000  0.78630000  0.29140000  1.0
  O2-  O2  1  0.14360000  0.78630000  0.62473333  1.0
  O2-  O2  1  0.14360000  0.78630000  0.95806667  1.0
  O2-  O2  1  0.64360000  0.28630000  0.29140000  1.0
  O2-  O2  1  0.64360000  0.28630000  0.62473333  1.0
  O2-  O2  1  0.64360000  0.28630000  0.95806667  1.0
  O2-  O2  1  0.64360000  0.78630000  0.29140000  1.0
  O2-  O2  1  0.64360000  0.78630000  0.62473333  1.0
  O2-  O2  1  0.64360000  0.78630000  0.95806667  1.0
  O2-  O2  1  0.39360000  0.28630000  0.20860000  1.0
  O2-  O2  1  0.39360000  0.28630000  0.54193333  1.0
  O2-  O2  1  0.39360000  0.28630000  0.87526667  1.0
  O2-  O2  1  0.39360000  0.78630000  0.20860000  1.0
  O2-  O2  1  0.39360000  0.78630000  0.54193333  1.0
  O2-  O2  1  0.39360000  0.78630000  0.87526667  1.0
  O2-  O2  1  0.89360000  0.28630000  0.20860000  1.0
  O2-  O2  1  0.89360000  0.28630000  0.54193333  1.0
  O2-  O2  1  0.89360000  0.28630000  0.87526667  1.0
  O2-  O2  1  0.89360000  0.78630000  0.20860000  1.0
  O2-  O2  1  0.89360000  0.78630000  0.54193333  1.0
  O2-  O2  1  0.89360000  0.78630000  0.87526667  1.0
  O2-  O2  1  0.35640000  0.21370000  0.04193333  1.0
  O2-  O2  1  0.35640000  0.21370000  0.37526667  1.0
  O2-  O2  1  0.35640000  0.21370000  0.70860000  1.0
  O2-  O2  1  0.35640000  0.71370000  0.04193333  1.0
  O2-  O2  1  0.35640000  0.71370000  0.37526667  1.0
  O2-  O2  1  0.35640000  0.71370000  0.70860000  1.0
  O2-  O2  1  0.85640000  0.21370000  0.04193333  1.0
  O2-  O2  1  0.85640000  0.21370000  0.37526667  1.0
  O2-  O2  1  0.85640000  0.21370000  0.70860000  1.0
  O2-  O2  1  0.85640000  0.71370000  0.04193333  1.0
  O2-  O2  1  0.85640000  0.71370000  0.37526667  1.0
  O2-  O2  1  0.85640000  0.71370000  0.70860000  1.0
