# generated using pymatgen
data_Li30P5SeS24Br5
_symmetry_space_group_name_H-M   'P 1'
_cell_length_a   7.06712145
_cell_length_b   35.33560724
_cell_length_c   14.13424290
_cell_angle_alpha   60.00000000
_cell_angle_beta   120.00000000
_cell_angle_gamma   120.00000000
_symmetry_Int_Tables_number   1
_chemical_formula_structural   Li30P5SeS24Br5
_chemical_formula_sum   'Li60 P10 Se2 S48 Br10'
_cell_volume   2495.81658607
_cell_formula_units_Z   2
loop_
 _symmetry_equiv_pos_site_id
 _symmetry_equiv_pos_as_xyz
  1  'x, y, z'
loop_
 _atom_type_symbol
 _atom_type_oxidation_number
  Li+  1.0
  P5+  5.0
  Se2-  -2.0
  S2-  -2.0
  Br-  -1.0
loop_
 _atom_site_type_symbol
 _atom_site_label
 _atom_site_symmetry_multiplicity
 _atom_site_fract_x
 _atom_site_fract_y
 _atom_site_fract_z
 _atom_site_occupancy
  Li+  Li0  1  0.48300000  0.90340000  0.74150000  1.0
  Li+  Li1  1  0.01700000  0.50340000  0.50850000  1.0
  Li+  Li2  1  0.01700000  0.90340000  0.00850000  1.0
  Li+  Li3  1  0.48300000  0.19660000  0.74150000  1.0
  Li+  Li4  1  0.01700000  0.30340000  0.74150000  1.0
  Li+  Li5  1  0.02234541  0.59476025  0.50598695  1.0
  Li+  Li6  1  0.48300000  0.79660000  0.50850000  1.0
  Li+  Li7  1  0.36108616  0.47518598  0.73655092  1.0
  Li+  Li8  1  0.36070000  0.08218000  0.73745000  1.0
  Li+  Li9  1  0.36070000  0.48218000  0.23745000  1.0
  Li+  Li10  1  0.36070000  0.28218000  0.23745000  1.0
  Li+  Li11  1  0.02510000  0.92786000  0.45545000  1.0
  Li+  Li12  1  0.02510000  0.32786000  0.45545000  1.0
  Li+  Li13  1  0.02510000  0.92786000  0.95545000  1.0
  Li+  Li14  1  0.02510000  0.72786000  0.95545000  1.0
  Li+  Li15  1  0.58910000  0.79498000  0.73745000  1.0
  Li+  Li16  1  0.58910000  0.39498000  0.23745000  1.0
  Li+  Li17  1  0.58910000  0.19498000  0.23745000  1.0
  Li+  Li18  1  0.58910000  0.32786000  0.73745000  1.0
  Li+  Li19  1  0.58910000  0.52786000  0.23745000  1.0
  Li+  Li20  1  0.58910000  0.12786000  0.23745000  1.0
  Li+  Li21  1  0.02510000  0.68218000  0.73745000  1.0
  Li+  Li22  1  0.02181825  0.28385070  0.73487151  1.0
  Li+  Li23  1  0.02510000  0.68218000  0.23745000  1.0
  Li+  Li24  1  0.02510000  0.28218000  0.23745000  1.0
  Li+  Li25  1  0.02510000  0.08218000  0.23745000  1.0
  Li+  Li26  1  0.02242587  0.93169124  0.73894119  1.0
  Li+  Li27  1  0.02510000  0.52786000  0.73745000  1.0
  Li+  Li28  1  0.02613550  0.12943926  0.74234476  1.0
  Li+  Li29  1  0.02510000  0.72786000  0.23745000  1.0
  Li+  Li30  1  0.02510000  0.68218000  0.56965000  1.0
  Li+  Li31  1  0.02621410  0.28555911  0.57192295  1.0
  Li+  Li32  1  0.02510000  0.08218000  0.56965000  1.0
  Li+  Li33  1  0.02510000  0.08218000  0.06965000  1.0
  Li+  Li34  1  0.02510000  0.79498000  0.56965000  1.0
  Li+  Li35  1  0.02510000  0.99498000  0.06965000  1.0
  Li+  Li36  1  0.02510000  0.79498000  0.06965000  1.0
  Li+  Li37  1  0.02588040  0.20022818  0.06970002  1.0
  Li+  Li38  1  0.36070000  0.79498000  0.73745000  1.0
  Li+  Li39  1  0.36013874  0.59661105  0.73860501  1.0
  Li+  Li40  1  0.36092305  0.19918125  0.74001786  1.0
  Li+  Li41  1  0.36070000  0.99498000  0.23745000  1.0
  Li+  Li42  1  0.36070000  0.79498000  0.23745000  1.0
  Li+  Li43  1  0.36070000  0.39498000  0.23745000  1.0
  Li+  Li44  1  0.36069166  0.19569762  0.23356722  1.0
  Li+  Li45  1  0.02510000  0.79498000  0.45545000  1.0
  Li+  Li46  1  0.02510000  0.79498000  0.95545000  1.0
  Li+  Li47  1  0.02510000  0.59498000  0.95545000  1.0
  Li+  Li48  1  0.02510000  0.39498000  0.95545000  1.0
  Li+  Li49  1  0.58816908  0.99104452  0.57345030  1.0
  Li+  Li50  1  0.58910000  0.59498000  0.56965000  1.0
  Li+  Li51  1  0.58878478  0.39095483  0.57086987  1.0
  Li+  Li52  1  0.58910000  0.99498000  0.06965000  1.0
  Li+  Li53  1  0.58910000  0.59498000  0.06965000  1.0
  Li+  Li54  1  0.36070000  0.99498000  0.45545000  1.0
  Li+  Li55  1  0.36070000  0.59498000  0.45545000  1.0
  Li+  Li56  1  0.36070000  0.39498000  0.45545000  1.0
  Li+  Li57  1  0.36052723  0.19707246  0.45877143  1.0
  Li+  Li58  1  0.36070000  0.99498000  0.95545000  1.0
  Li+  Li59  1  0.35796610  0.59754435  0.95635858  1.0
  P5+  P60  1  0.49827873  0.89832140  0.49872067  1.0
  P5+  P61  1  0.50000000  0.70000000  0.50000000  1.0
  P5+  P62  1  0.50026223  0.50233486  0.50048510  1.0
  P5+  P63  1  0.50000000  0.30000000  0.50000000  1.0
  P5+  P64  1  0.50000000  0.10000000  0.50000000  1.0
  P5+  P65  1  0.50000000  0.90000000  0.00000000  1.0
  P5+  P66  1  0.50000000  0.70000000  0.00000000  1.0
  P5+  P67  1  0.50000000  0.50000000  0.00000000  1.0
  P5+  P68  1  0.50000000  0.30000000  0.00000000  1.0
  P5+  P69  1  0.49820948  0.09896660  0.99547234  1.0
  Se2-  Se70  1  0.25000000  0.35000000  0.12500000  1.0
  Se2-  Se71  1  0.25000000  0.15000000  0.12500000  1.0
  S2-  S72  1  0.62149000  0.87570200  0.68223500  1.0
  S2-  S73  1  0.62149000  0.67570200  0.68223500  1.0
  S2-  S74  1  0.62149000  0.47570200  0.68223500  1.0
  S2-  S75  1  0.62149000  0.27570200  0.68223500  1.0
  S2-  S76  1  0.62149000  0.07570200  0.68223500  1.0
  S2-  S77  1  0.62115368  0.86877350  0.18085401  1.0
  S2-  S78  1  0.62149000  0.67570200  0.18223500  1.0
  S2-  S79  1  0.62149000  0.47570200  0.18223500  1.0
  S2-  S80  1  0.62149000  0.27570200  0.18223500  1.0
  S2-  S81  1  0.62149000  0.07570200  0.18223500  1.0
  S2-  S82  1  0.62149000  0.87570200  0.43925500  1.0
  S2-  S83  1  0.62043517  0.67921025  0.43645941  1.0
  S2-  S84  1  0.62719855  0.47575496  0.44504631  1.0
  S2-  S85  1  0.62149000  0.27570200  0.43925500  1.0
  S2-  S86  1  0.62149000  0.07570200  0.43925500  1.0
  S2-  S87  1  0.62313452  0.87679786  0.94073090  1.0
  S2-  S88  1  0.62149000  0.67570200  0.93925500  1.0
  S2-  S89  1  0.62149000  0.47570200  0.93925500  1.0
  S2-  S90  1  0.62149000  0.27570200  0.93925500  1.0
  S2-  S91  1  0.62149000  0.07570200  0.93925500  1.0
  S2-  S92  1  0.62149000  0.97289400  0.43925500  1.0
  S2-  S93  1  0.62149000  0.77289400  0.43925500  1.0
  S2-  S94  1  0.62149000  0.57289400  0.43925500  1.0
  S2-  S95  1  0.61985098  0.37287599  0.44146794  1.0
  S2-  S96  1  0.62219416  0.17022427  0.43627919  1.0
  S2-  S97  1  0.62149000  0.97289400  0.93925500  1.0
  S2-  S98  1  0.62149000  0.77289400  0.93925500  1.0
  S2-  S99  1  0.62056794  0.57099240  0.94184885  1.0
  S2-  S100  1  0.61845554  0.36892622  0.94083821  1.0
  S2-  S101  1  0.62149000  0.17289400  0.93925500  1.0
  S2-  S102  1  0.13553000  0.87570200  0.43925500  1.0
  S2-  S103  1  0.13553000  0.67570200  0.43925500  1.0
  S2-  S104  1  0.13553000  0.47570200  0.43925500  1.0
  S2-  S105  1  0.13320382  0.27270077  0.43486469  1.0
  S2-  S106  1  0.13559071  0.07624052  0.44037164  1.0
  S2-  S107  1  0.13553000  0.87570200  0.93925500  1.0
  S2-  S108  1  0.13553000  0.67570200  0.93925500  1.0
  S2-  S109  1  0.13553000  0.47570200  0.93925500  1.0
  S2-  S110  1  0.13025161  0.27731783  0.93594579  1.0
  S2-  S111  1  0.13553000  0.07570200  0.93925500  1.0
  S2-  S112  1  0.00289550  0.00139094  0.74929246  1.0
  S2-  S113  1  0.25246307  0.74920180  0.62242983  1.0
  S2-  S114  1  0.24932339  0.55048413  0.62516271  1.0
  S2-  S115  1  0.25000000  0.35000000  0.62500000  1.0
  S2-  S116  1  0.25000000  0.15000000  0.62500000  1.0
  S2-  S117  1  0.25000000  0.95000000  0.12500000  1.0
  S2-  S118  1  0.25000000  0.75000000  0.12500000  1.0
  S2-  S119  1  0.25000000  0.55000000  0.12500000  1.0
  Br-  Br120  1  0.00000000  0.80000000  0.75000000  1.0
  Br-  Br121  1  0.00000000  0.60000000  0.75000000  1.0
  Br-  Br122  1  0.00000000  0.40000000  0.75000000  1.0
  Br-  Br123  1  0.00000000  0.20000000  0.75000000  1.0
  Br-  Br124  1  0.00000000  0.00000000  0.25000000  1.0
  Br-  Br125  1  0.99903891  0.80193272  0.24878411  1.0
  Br-  Br126  1  0.00000000  0.60000000  0.25000000  1.0
  Br-  Br127  1  0.00000000  0.40000000  0.25000000  1.0
  Br-  Br128  1  0.00000000  0.20000000  0.25000000  1.0
  Br-  Br129  1  0.25000000  0.95000000  0.62500000  1.0
