# generated using pymatgen
data_LiTa2PO8
_symmetry_space_group_name_H-M   'P 1'
_cell_length_a   15.08193383
_cell_length_b   10.69708000
_cell_length_c   15.08193384
_cell_angle_alpha   90.02286833
_cell_angle_beta   80.20818538
_cell_angle_gamma   89.97713167
_symmetry_Int_Tables_number   1
_chemical_formula_structural   LiTa2PO8
_chemical_formula_sum   'Li16 Ta32 P16 O128'
_cell_volume   2397.76145312
_cell_formula_units_Z   16
loop_
 _symmetry_equiv_pos_site_id
 _symmetry_equiv_pos_as_xyz
  1  'x, y, z'
loop_
 _atom_type_symbol
 _atom_type_oxidation_number
  Li+  1.0
  Ta5+  5.0
  P5+  5.0
  O2-  -2.0
loop_
 _atom_site_type_symbol
 _atom_site_label
 _atom_site_symmetry_multiplicity
 _atom_site_fract_x
 _atom_site_fract_y
 _atom_site_fract_z
 _atom_site_occupancy
  Li+  Li0  1  0.13346147  0.89942466  0.49791784  1.0
  Li+  Li1  1  0.13750000  0.90000000  0.99950000  1.0
  Li+  Li2  1  0.75135516  0.60006240  0.38634058  1.0
  Li+  Li3  1  0.74950000  0.60000000  0.88750000  1.0
  Li+  Li4  1  0.55600000  0.64000000  0.55100000  1.0
  Li+  Li5  1  0.55600000  0.64000000  0.05100000  1.0
  Li+  Li6  1  0.30100000  0.86000000  0.30600000  1.0
  Li+  Li7  1  0.30100000  0.86000000  0.80600000  1.0
  Li+  Li8  1  0.44400000  0.36000000  0.44900000  1.0
  Li+  Li9  1  0.44400000  0.36000000  0.94900000  1.0
  Li+  Li10  1  0.94668971  0.35174071  0.44575387  1.0
  Li+  Li11  1  0.94400000  0.36000000  0.94900000  1.0
  Li+  Li12  1  0.19900000  0.14000000  0.69400000  1.0
  Li+  Li13  1  0.19900000  0.14000000  0.19400000  1.0
  Li+  Li14  1  0.69900000  0.14000000  0.69400000  1.0
  Li+  Li15  1  0.69900000  0.14000000  0.19400000  1.0
  Ta5+  Ta16  1  0.42504500  0.75550000  0.42065500  1.0
  Ta5+  Ta17  1  0.42504500  0.75550000  0.92065500  1.0
  Ta5+  Ta18  1  0.92504500  0.75550000  0.42065500  1.0
  Ta5+  Ta19  1  0.92272528  0.75698728  0.91802906  1.0
  Ta5+  Ta20  1  0.17183562  0.74567898  0.67295869  1.0
  Ta5+  Ta21  1  0.17065500  0.74450000  0.17504500  1.0
  Ta5+  Ta22  1  0.67065500  0.74450000  0.67504500  1.0
  Ta5+  Ta23  1  0.67065500  0.74450000  0.17504500  1.0
  Ta5+  Ta24  1  0.07858962  0.24362552  0.57481322  1.0
  Ta5+  Ta25  1  0.07495500  0.24450000  0.07934500  1.0
  Ta5+  Ta26  1  0.57590102  0.24055160  0.58111468  1.0
  Ta5+  Ta27  1  0.57495500  0.24450000  0.07934500  1.0
  Ta5+  Ta28  1  0.32786009  0.25375959  0.32708143  1.0
  Ta5+  Ta29  1  0.32934500  0.25550000  0.82495500  1.0
  Ta5+  Ta30  1  0.82934500  0.25550000  0.32495500  1.0
  Ta5+  Ta31  1  0.82934500  0.25550000  0.82495500  1.0
  Ta5+  Ta32  1  0.17315000  0.75000000  0.42315000  1.0
  Ta5+  Ta33  1  0.17566222  0.75100691  0.92272883  1.0
  Ta5+  Ta34  1  0.67426574  0.74985547  0.42391859  1.0
  Ta5+  Ta35  1  0.67315000  0.75000000  0.92315000  1.0
  Ta5+  Ta36  1  0.32685000  0.25000000  0.57685000  1.0
  Ta5+  Ta37  1  0.32640507  0.25374136  0.07558942  1.0
  Ta5+  Ta38  1  0.82777967  0.24512061  0.57375595  1.0
  Ta5+  Ta39  1  0.82501441  0.25000439  0.07912880  1.0
  Ta5+  Ta40  1  0.99828847  0.49857892  0.74921709  1.0
  Ta5+  Ta41  1  0.00000000  0.50000000  0.25000000  1.0
  Ta5+  Ta42  1  0.50000000  0.50000000  0.75000000  1.0
  Ta5+  Ta43  1  0.50000000  0.50000000  0.25000000  1.0
  Ta5+  Ta44  1  0.00000000  0.00000000  0.75000000  1.0
  Ta5+  Ta45  1  0.00000000  0.00000000  0.25000000  1.0
  Ta5+  Ta46  1  0.50000000  0.00000000  0.75000000  1.0
  Ta5+  Ta47  1  0.50000000  0.00000000  0.25000000  1.0
  P5+  P48  1  0.35515000  0.55960000  0.60445000  1.0
  P5+  P49  1  0.35515000  0.55960000  0.10445000  1.0
  P5+  P50  1  0.85303840  0.55896790  0.60491003  1.0
  P5+  P51  1  0.85515000  0.55960000  0.10445000  1.0
  P5+  P52  1  0.35445000  0.94040000  0.60515000  1.0
  P5+  P53  1  0.35445000  0.94040000  0.10515000  1.0
  P5+  P54  1  0.85445000  0.94040000  0.60515000  1.0
  P5+  P55  1  0.85445000  0.94040000  0.10515000  1.0
  P5+  P56  1  0.14269805  0.44113396  0.39624219  1.0
  P5+  P57  1  0.14880895  0.43576819  0.90227080  1.0
  P5+  P58  1  0.64485000  0.44040000  0.39555000  1.0
  P5+  P59  1  0.64485000  0.44040000  0.89555000  1.0
  P5+  P60  1  0.14555000  0.05960000  0.39485000  1.0
  P5+  P61  1  0.14798072  0.05950641  0.89079199  1.0
  P5+  P62  1  0.64609708  0.06007244  0.39838788  1.0
  P5+  P63  1  0.64638695  0.06201768  0.89338947  1.0
  O2-  O64  1  0.13870000  0.56770000  0.44560000  1.0
  O2-  O65  1  0.13870000  0.56770000  0.94560000  1.0
  O2-  O66  1  0.63870000  0.56770000  0.44560000  1.0
  O2-  O67  1  0.63733562  0.57191305  0.94574739  1.0
  O2-  O68  1  0.19560000  0.93230000  0.38870000  1.0
  O2-  O69  1  0.19560000  0.93230000  0.88870000  1.0
  O2-  O70  1  0.69560000  0.93230000  0.38870000  1.0
  O2-  O71  1  0.69560000  0.93230000  0.88870000  1.0
  O2-  O72  1  0.36130000  0.43230000  0.55440000  1.0
  O2-  O73  1  0.36130000  0.43230000  0.05440000  1.0
  O2-  O74  1  0.86130000  0.43230000  0.55440000  1.0
  O2-  O75  1  0.86130000  0.43230000  0.05440000  1.0
  O2-  O76  1  0.30440000  0.06770000  0.61130000  1.0
  O2-  O77  1  0.30280470  0.06530420  0.11157590  1.0
  O2-  O78  1  0.80440000  0.06770000  0.61130000  1.0
  O2-  O79  1  0.80440000  0.06770000  0.11130000  1.0
  O2-  O80  1  0.37770000  0.90610000  0.50940000  1.0
  O2-  O81  1  0.37770000  0.90610000  0.00940000  1.0
  O2-  O82  1  0.87770000  0.90610000  0.50940000  1.0
  O2-  O83  1  0.87770000  0.90610000  0.00940000  1.0
  O2-  O84  1  0.25940000  0.59390000  0.62770000  1.0
  O2-  O85  1  0.25940000  0.59390000  0.12770000  1.0
  O2-  O86  1  0.75940000  0.59390000  0.62770000  1.0
  O2-  O87  1  0.75862938  0.59736101  0.12951078  1.0
  O2-  O88  1  0.12230000  0.09390000  0.49060000  1.0
  O2-  O89  1  0.12230000  0.09390000  0.99060000  1.0
  O2-  O90  1  0.62230000  0.09390000  0.49060000  1.0
  O2-  O91  1  0.62155174  0.09416212  0.99228030  1.0
  O2-  O92  1  0.24060000  0.40610000  0.37230000  1.0
  O2-  O93  1  0.24060000  0.40610000  0.87230000  1.0
  O2-  O94  1  0.74003630  0.40816405  0.37272604  1.0
  O2-  O95  1  0.74407750  0.40379657  0.87541949  1.0
  O2-  O96  1  0.07410000  0.62710000  0.68230000  1.0
  O2-  O97  1  0.07410000  0.62710000  0.18230000  1.0
  O2-  O98  1  0.57217264  0.62441791  0.68437900  1.0
  O2-  O99  1  0.57410000  0.62710000  0.18230000  1.0
  O2-  O100  1  0.43230000  0.87290000  0.32410000  1.0
  O2-  O101  1  0.43230000  0.87290000  0.82410000  1.0
  O2-  O102  1  0.93230000  0.87290000  0.32410000  1.0
  O2-  O103  1  0.92777515  0.86817361  0.82543555  1.0
  O2-  O104  1  0.42590000  0.37290000  0.31770000  1.0
  O2-  O105  1  0.42590000  0.37290000  0.81770000  1.0
  O2-  O106  1  0.92626278  0.36810205  0.31643535  1.0
  O2-  O107  1  0.92590000  0.37290000  0.81770000  1.0
  O2-  O108  1  0.06770000  0.12710000  0.67590000  1.0
  O2-  O109  1  0.06770000  0.12710000  0.17590000  1.0
  O2-  O110  1  0.57080697  0.12545194  0.67061910  1.0
  O2-  O111  1  0.56391249  0.13179880  0.17301634  1.0
  O2-  O112  1  0.05850000  0.04970000  0.35600000  1.0
  O2-  O113  1  0.05850000  0.04970000  0.85600000  1.0
  O2-  O114  1  0.55605713  0.04810895  0.35891652  1.0
  O2-  O115  1  0.55850000  0.04970000  0.85600000  1.0
  O2-  O116  1  0.10506352  0.45044799  0.30940458  1.0
  O2-  O117  1  0.10634107  0.45062639  0.81292764  1.0
  O2-  O118  1  0.60600000  0.45030000  0.30850000  1.0
  O2-  O119  1  0.60600000  0.45030000  0.80850000  1.0
  O2-  O120  1  0.44150000  0.95030000  0.64400000  1.0
  O2-  O121  1  0.43927060  0.95368397  0.14454137  1.0
  O2-  O122  1  0.94150000  0.95030000  0.64400000  1.0
  O2-  O123  1  0.94040373  0.95466208  0.14633379  1.0
  O2-  O124  1  0.39400000  0.54970000  0.69150000  1.0
  O2-  O125  1  0.39400000  0.54970000  0.19150000  1.0
  O2-  O126  1  0.89153286  0.55604490  0.69018545  1.0
  O2-  O127  1  0.89400000  0.54970000  0.19150000  1.0
  O2-  O128  1  0.04495000  0.78790000  0.43925000  1.0
  O2-  O129  1  0.04495000  0.78790000  0.93925000  1.0
  O2-  O130  1  0.54495000  0.78790000  0.43925000  1.0
  O2-  O131  1  0.54191244  0.79446840  0.94060514  1.0
  O2-  O132  1  0.18925000  0.71210000  0.29495000  1.0
  O2-  O133  1  0.18925000  0.71210000  0.79495000  1.0
  O2-  O134  1  0.68718692  0.71295710  0.29657542  1.0
  O2-  O135  1  0.68925000  0.71210000  0.79495000  1.0
  O2-  O136  1  0.45505000  0.21210000  0.56075000  1.0
  O2-  O137  1  0.45621745  0.21226910  0.06591190  1.0
  O2-  O138  1  0.95505000  0.21210000  0.56075000  1.0
  O2-  O139  1  0.95505000  0.21210000  0.06075000  1.0
  O2-  O140  1  0.30915270  0.28907097  0.70601241  1.0
  O2-  O141  1  0.31075000  0.28790000  0.20505000  1.0
  O2-  O142  1  0.81075000  0.28790000  0.70505000  1.0
  O2-  O143  1  0.81075000  0.28790000  0.20505000  1.0
  O2-  O144  1  0.45940000  0.61610000  0.34730000  1.0
  O2-  O145  1  0.45940000  0.61610000  0.84730000  1.0
  O2-  O146  1  0.95771166  0.61340582  0.34789609  1.0
  O2-  O147  1  0.95940000  0.61610000  0.84730000  1.0
  O2-  O148  1  0.09730000  0.88390000  0.70940000  1.0
  O2-  O149  1  0.09730000  0.88390000  0.20940000  1.0
  O2-  O150  1  0.59730000  0.88390000  0.70940000  1.0
  O2-  O151  1  0.59730000  0.88390000  0.20940000  1.0
  O2-  O152  1  0.04060000  0.38390000  0.65270000  1.0
  O2-  O153  1  0.04060000  0.38390000  0.15270000  1.0
  O2-  O154  1  0.54060000  0.38390000  0.65270000  1.0
  O2-  O155  1  0.54060000  0.38390000  0.15270000  1.0
  O2-  O156  1  0.40270000  0.11610000  0.29060000  1.0
  O2-  O157  1  0.40403049  0.11443777  0.79071668  1.0
  O2-  O158  1  0.90270000  0.11610000  0.29060000  1.0
  O2-  O159  1  0.90270000  0.11610000  0.79060000  1.0
  O2-  O160  1  0.41505108  0.65436647  0.53951872  1.0
  O2-  O161  1  0.41180000  0.65370000  0.04050000  1.0
  O2-  O162  1  0.91180000  0.65370000  0.54050000  1.0
  O2-  O163  1  0.91180000  0.65370000  0.04050000  1.0
  O2-  O164  1  0.29050000  0.84630000  0.66180000  1.0
  O2-  O165  1  0.29050000  0.84630000  0.16180000  1.0
  O2-  O166  1  0.79050000  0.84630000  0.66180000  1.0
  O2-  O167  1  0.79047813  0.84315844  0.16030717  1.0
  O2-  O168  1  0.08820000  0.34630000  0.45950000  1.0
  O2-  O169  1  0.08820000  0.34630000  0.95950000  1.0
  O2-  O170  1  0.58820000  0.34630000  0.45950000  1.0
  O2-  O171  1  0.58820000  0.34630000  0.95950000  1.0
  O2-  O172  1  0.20950000  0.15370000  0.33820000  1.0
  O2-  O173  1  0.20950000  0.15370000  0.83820000  1.0
  O2-  O174  1  0.70950000  0.15370000  0.33820000  1.0
  O2-  O175  1  0.70950000  0.15370000  0.83820000  1.0
  O2-  O176  1  0.16435000  0.78240000  0.55115000  1.0
  O2-  O177  1  0.16435000  0.78240000  0.05115000  1.0
  O2-  O178  1  0.66435000  0.78240000  0.55115000  1.0
  O2-  O179  1  0.66435000  0.78240000  0.05115000  1.0
  O2-  O180  1  0.30115000  0.71760000  0.41435000  1.0
  O2-  O181  1  0.30115000  0.71760000  0.91435000  1.0
  O2-  O182  1  0.80115000  0.71760000  0.41435000  1.0
  O2-  O183  1  0.80063823  0.71954891  0.91796568  1.0
  O2-  O184  1  0.33565000  0.21760000  0.44885000  1.0
  O2-  O185  1  0.33565000  0.21760000  0.94885000  1.0
  O2-  O186  1  0.83565000  0.21760000  0.44885000  1.0
  O2-  O187  1  0.83565000  0.21760000  0.94885000  1.0
  O2-  O188  1  0.19885000  0.28240000  0.58565000  1.0
  O2-  O189  1  0.19999899  0.28408754  0.08645204  1.0
  O2-  O190  1  0.70185699  0.28174957  0.58880102  1.0
  O2-  O191  1  0.69885000  0.28240000  0.08565000  1.0
