# generated using pymatgen
data_LiTa2PO8
_symmetry_space_group_name_H-M   'P 1'
_cell_length_a   14.95290547
_cell_length_b   14.95290546
_cell_length_c   10.60556476
_cell_angle_alpha   89.97713167
_cell_angle_beta   89.97713167
_cell_angle_gamma   99.79181462
_symmetry_Int_Tables_number   1
_chemical_formula_structural   LiTa2PO8
_chemical_formula_sum   'Li16 Ta32 P16 O128'
_cell_volume   2336.74672905
_cell_formula_units_Z   16
loop_
 _symmetry_equiv_pos_site_id
 _symmetry_equiv_pos_as_xyz
  1  'x, y, z'
loop_
 _atom_type_symbol
 _atom_type_oxidation_number
  Li+  1.0
  Ta5+  5.0
  P5+  5.0
  O2-  -2.0
loop_
 _atom_site_type_symbol
 _atom_site_label
 _atom_site_symmetry_multiplicity
 _atom_site_fract_x
 _atom_site_fract_y
 _atom_site_fract_z
 _atom_site_occupancy
  Li+  Li0  1  0.74950000  0.52916667  0.10000000  1.0
  Li+  Li1  1  0.24950000  0.52916667  0.10000000  1.0
  Li+  Li2  1  0.63750000  0.91716667  0.40000000  1.0
  Li+  Li3  1  0.13750000  0.91716667  0.40000000  1.0
  Li+  Li4  1  0.80100000  0.11066667  0.36000000  1.0
  Li+  Li5  1  0.30100000  0.11066667  0.36000000  1.0
  Li+  Li6  1  0.55600000  0.36566667  0.14000000  1.0
  Li+  Li7  1  0.05600000  0.36566667  0.14000000  1.0
  Li+  Li8  1  0.69900000  0.22266667  0.64000000  1.0
  Li+  Li9  1  0.19900000  0.22266667  0.64000000  1.0
  Li+  Li10  1  0.69900000  0.72266667  0.64000000  1.0
  Li+  Li11  1  0.19900000  0.72266667  0.64000000  1.0
  Li+  Li12  1  0.94400000  0.46766667  0.86000000  1.0
  Li+  Li13  1  0.44400000  0.46766667  0.86000000  1.0
  Li+  Li14  1  0.94400000  0.96766667  0.86000000  1.0
  Li+  Li15  1  0.44400000  0.96766667  0.86000000  1.0
  Ta5+  Ta16  1  0.67065500  0.24162167  0.24450000  1.0
  Ta5+  Ta17  1  0.17065500  0.24162167  0.24450000  1.0
  Ta5+  Ta18  1  0.67065500  0.74162167  0.24450000  1.0
  Ta5+  Ta19  1  0.17065500  0.74162167  0.24450000  1.0
  Ta5+  Ta20  1  0.92504500  0.49601167  0.25550000  1.0
  Ta5+  Ta21  1  0.42504500  0.49601167  0.25550000  1.0
  Ta5+  Ta22  1  0.92504500  0.99601167  0.25550000  1.0
  Ta5+  Ta23  1  0.42504500  0.99601167  0.25550000  1.0
  Ta5+  Ta24  1  0.82934500  0.59171167  0.75550000  1.0
  Ta5+  Ta25  1  0.32934500  0.59171167  0.75550000  1.0
  Ta5+  Ta26  1  0.82934500  0.09171167  0.75550000  1.0
  Ta5+  Ta27  1  0.32934500  0.09171167  0.75550000  1.0
  Ta5+  Ta28  1  0.57495500  0.33732167  0.74450000  1.0
  Ta5+  Ta29  1  0.07495500  0.33732167  0.74450000  1.0
  Ta5+  Ta30  1  0.57495500  0.83732167  0.74450000  1.0
  Ta5+  Ta31  1  0.07495500  0.83732167  0.74450000  1.0
  Ta5+  Ta32  1  0.67315000  0.49351667  0.25000000  1.0
  Ta5+  Ta33  1  0.17315000  0.49351667  0.25000000  1.0
  Ta5+  Ta34  1  0.67315000  0.99351667  0.25000000  1.0
  Ta5+  Ta35  1  0.17315000  0.99351667  0.25000000  1.0
  Ta5+  Ta36  1  0.82685000  0.33981667  0.75000000  1.0
  Ta5+  Ta37  1  0.32685000  0.33981667  0.75000000  1.0
  Ta5+  Ta38  1  0.82685000  0.83981667  0.75000000  1.0
  Ta5+  Ta39  1  0.32685000  0.83981667  0.75000000  1.0
  Ta5+  Ta40  1  0.00000000  0.66666667  0.50000000  1.0
  Ta5+  Ta41  1  0.50000000  0.66666667  0.50000000  1.0
  Ta5+  Ta42  1  0.00000000  0.16666667  0.50000000  1.0
  Ta5+  Ta43  1  0.50000000  0.16666667  0.50000000  1.0
  Ta5+  Ta44  1  0.00000000  0.66666667  0.00000000  1.0
  Ta5+  Ta45  1  0.50000000  0.66666667  0.00000000  1.0
  Ta5+  Ta46  1  0.00000000  0.16666667  0.00000000  1.0
  Ta5+  Ta47  1  0.50000000  0.16666667  0.00000000  1.0
  P5+  P48  1  0.85445000  0.31151667  0.44040000  1.0
  P5+  P49  1  0.35445000  0.31151667  0.44040000  1.0
  P5+  P50  1  0.85445000  0.81151667  0.44040000  1.0
  P5+  P51  1  0.35445000  0.81151667  0.44040000  1.0
  P5+  P52  1  0.85515000  0.31221667  0.05960000  1.0
  P5+  P53  1  0.35515000  0.31221667  0.05960000  1.0
  P5+  P54  1  0.85515000  0.81221667  0.05960000  1.0
  P5+  P55  1  0.35515000  0.81221667  0.05960000  1.0
  P5+  P56  1  0.64555000  0.52181667  0.55960000  1.0
  P5+  P57  1  0.14555000  0.52181667  0.55960000  1.0
  P5+  P58  1  0.64555000  0.02181667  0.55960000  1.0
  P5+  P59  1  0.14555000  0.02181667  0.55960000  1.0
  P5+  P60  1  0.64485000  0.52111667  0.94040000  1.0
  P5+  P61  1  0.14485000  0.52111667  0.94040000  1.0
  P5+  P62  1  0.64485000  0.02111667  0.94040000  1.0
  P5+  P63  1  0.14485000  0.02111667  0.94040000  1.0
  O2-  O64  1  0.69560000  0.52796667  0.43230000  1.0
  O2-  O65  1  0.19560000  0.52796667  0.43230000  1.0
  O2-  O66  1  0.69560000  0.02796667  0.43230000  1.0
  O2-  O67  1  0.19560000  0.02796667  0.43230000  1.0
  O2-  O68  1  0.63870000  0.47106667  0.06770000  1.0
  O2-  O69  1  0.13870000  0.47106667  0.06770000  1.0
  O2-  O70  1  0.63870000  0.97106667  0.06770000  1.0
  O2-  O71  1  0.13870000  0.97106667  0.06770000  1.0
  O2-  O72  1  0.80440000  0.30536667  0.56770000  1.0
  O2-  O73  1  0.30440000  0.30536667  0.56770000  1.0
  O2-  O74  1  0.80440000  0.80536667  0.56770000  1.0
  O2-  O75  1  0.30440000  0.80536667  0.56770000  1.0
  O2-  O76  1  0.86130000  0.36226667  0.93230000  1.0
  O2-  O77  1  0.36130000  0.36226667  0.93230000  1.0
  O2-  O78  1  0.86130000  0.86226667  0.93230000  1.0
  O2-  O79  1  0.36130000  0.86226667  0.93230000  1.0
  O2-  O80  1  0.75940000  0.28896667  0.09390000  1.0
  O2-  O81  1  0.25940000  0.28896667  0.09390000  1.0
  O2-  O82  1  0.75940000  0.78896667  0.09390000  1.0
  O2-  O83  1  0.25940000  0.78896667  0.09390000  1.0
  O2-  O84  1  0.87770000  0.40726667  0.40610000  1.0
  O2-  O85  1  0.37770000  0.40726667  0.40610000  1.0
  O2-  O86  1  0.87770000  0.90726667  0.40610000  1.0
  O2-  O87  1  0.37770000  0.90726667  0.40610000  1.0
  O2-  O88  1  0.74060000  0.54436667  0.90610000  1.0
  O2-  O89  1  0.24060000  0.54436667  0.90610000  1.0
  O2-  O90  1  0.74060000  0.04436667  0.90610000  1.0
  O2-  O91  1  0.24060000  0.04436667  0.90610000  1.0
  O2-  O92  1  0.62230000  0.42606667  0.59390000  1.0
  O2-  O93  1  0.12230000  0.42606667  0.59390000  1.0
  O2-  O94  1  0.62230000  0.92606667  0.59390000  1.0
  O2-  O95  1  0.12230000  0.92606667  0.59390000  1.0
  O2-  O96  1  0.93230000  0.59256667  0.37290000  1.0
  O2-  O97  1  0.43230000  0.59256667  0.37290000  1.0
  O2-  O98  1  0.93230000  0.09256667  0.37290000  1.0
  O2-  O99  1  0.43230000  0.09256667  0.37290000  1.0
  O2-  O100  1  0.57410000  0.23436667  0.12710000  1.0
  O2-  O101  1  0.07410000  0.23436667  0.12710000  1.0
  O2-  O102  1  0.57410000  0.73436667  0.12710000  1.0
  O2-  O103  1  0.07410000  0.73436667  0.12710000  1.0
  O2-  O104  1  0.56770000  0.24076667  0.62710000  1.0
  O2-  O105  1  0.06770000  0.24076667  0.62710000  1.0
  O2-  O106  1  0.56770000  0.74076667  0.62710000  1.0
  O2-  O107  1  0.06770000  0.74076667  0.62710000  1.0
  O2-  O108  1  0.92590000  0.59896667  0.87290000  1.0
  O2-  O109  1  0.42590000  0.59896667  0.87290000  1.0
  O2-  O110  1  0.92590000  0.09896667  0.87290000  1.0
  O2-  O111  1  0.42590000  0.09896667  0.87290000  1.0
  O2-  O112  1  0.60600000  0.60816667  0.95030000  1.0
  O2-  O113  1  0.10600000  0.60816667  0.95030000  1.0
  O2-  O114  1  0.60600000  0.10816667  0.95030000  1.0
  O2-  O115  1  0.10600000  0.10816667  0.95030000  1.0
  O2-  O116  1  0.55850000  0.56066667  0.54970000  1.0
  O2-  O117  1  0.05850000  0.56066667  0.54970000  1.0
  O2-  O118  1  0.55850000  0.06066667  0.54970000  1.0
  O2-  O119  1  0.05850000  0.06066667  0.54970000  1.0
  O2-  O120  1  0.89400000  0.22516667  0.04970000  1.0
  O2-  O121  1  0.39400000  0.22516667  0.04970000  1.0
  O2-  O122  1  0.89400000  0.72516667  0.04970000  1.0
  O2-  O123  1  0.39400000  0.72516667  0.04970000  1.0
  O2-  O124  1  0.94150000  0.27266667  0.45030000  1.0
  O2-  O125  1  0.44150000  0.27266667  0.45030000  1.0
  O2-  O126  1  0.94150000  0.77266667  0.45030000  1.0
  O2-  O127  1  0.44150000  0.77266667  0.45030000  1.0
  O2-  O128  1  0.68925000  0.62171667  0.21210000  1.0
  O2-  O129  1  0.18925000  0.62171667  0.21210000  1.0
  O2-  O130  1  0.68925000  0.12171667  0.21210000  1.0
  O2-  O131  1  0.18925000  0.12171667  0.21210000  1.0
  O2-  O132  1  0.54495000  0.47741667  0.28790000  1.0
  O2-  O133  1  0.04495000  0.47741667  0.28790000  1.0
  O2-  O134  1  0.54495000  0.97741667  0.28790000  1.0
  O2-  O135  1  0.04495000  0.97741667  0.28790000  1.0
  O2-  O136  1  0.81075000  0.21161667  0.78790000  1.0
  O2-  O137  1  0.31075000  0.21161667  0.78790000  1.0
  O2-  O138  1  0.81075000  0.71161667  0.78790000  1.0
  O2-  O139  1  0.31075000  0.71161667  0.78790000  1.0
  O2-  O140  1  0.95505000  0.35591667  0.71210000  1.0
  O2-  O141  1  0.45505000  0.35591667  0.71210000  1.0
  O2-  O142  1  0.95505000  0.85591667  0.71210000  1.0
  O2-  O143  1  0.45505000  0.85591667  0.71210000  1.0
  O2-  O144  1  0.59730000  0.20726667  0.38390000  1.0
  O2-  O145  1  0.09730000  0.20726667  0.38390000  1.0
  O2-  O146  1  0.59730000  0.70726667  0.38390000  1.0
  O2-  O147  1  0.09730000  0.70726667  0.38390000  1.0
  O2-  O148  1  0.95940000  0.56936667  0.11610000  1.0
  O2-  O149  1  0.45940000  0.56936667  0.11610000  1.0
  O2-  O150  1  0.95940000  0.06936667  0.11610000  1.0
  O2-  O151  1  0.45940000  0.06936667  0.11610000  1.0
  O2-  O152  1  0.90270000  0.62606667  0.61610000  1.0
  O2-  O153  1  0.40270000  0.62606667  0.61610000  1.0
  O2-  O154  1  0.90270000  0.12606667  0.61610000  1.0
  O2-  O155  1  0.40270000  0.12606667  0.61610000  1.0
  O2-  O156  1  0.54060000  0.26396667  0.88390000  1.0
  O2-  O157  1  0.04060000  0.26396667  0.88390000  1.0
  O2-  O158  1  0.54060000  0.76396667  0.88390000  1.0
  O2-  O159  1  0.04060000  0.76396667  0.88390000  1.0
  O2-  O160  1  0.79050000  0.25486667  0.34630000  1.0
  O2-  O161  1  0.29050000  0.25486667  0.34630000  1.0
  O2-  O162  1  0.79050000  0.75486667  0.34630000  1.0
  O2-  O163  1  0.29050000  0.75486667  0.34630000  1.0
  O2-  O164  1  0.91180000  0.37616667  0.15370000  1.0
  O2-  O165  1  0.41180000  0.37616667  0.15370000  1.0
  O2-  O166  1  0.91180000  0.87616667  0.15370000  1.0
  O2-  O167  1  0.41180000  0.87616667  0.15370000  1.0
  O2-  O168  1  0.70950000  0.57846667  0.65370000  1.0
  O2-  O169  1  0.20950000  0.57846667  0.65370000  1.0
  O2-  O170  1  0.70950000  0.07846667  0.65370000  1.0
  O2-  O171  1  0.20950000  0.07846667  0.65370000  1.0
  O2-  O172  1  0.58820000  0.45716667  0.84630000  1.0
  O2-  O173  1  0.08820000  0.45716667  0.84630000  1.0
  O2-  O174  1  0.58820000  0.95716667  0.84630000  1.0
  O2-  O175  1  0.08820000  0.95716667  0.84630000  1.0
  O2-  O176  1  0.80115000  0.50231667  0.21760000  1.0
  O2-  O177  1  0.30115000  0.50231667  0.21760000  1.0
  O2-  O178  1  0.80115000  0.00231667  0.21760000  1.0
  O2-  O179  1  0.30115000  0.00231667  0.21760000  1.0
  O2-  O180  1  0.66435000  0.36551667  0.28240000  1.0
  O2-  O181  1  0.16435000  0.36551667  0.28240000  1.0
  O2-  O182  1  0.66435000  0.86551667  0.28240000  1.0
  O2-  O183  1  0.16435000  0.86551667  0.28240000  1.0
  O2-  O184  1  0.69885000  0.33101667  0.78240000  1.0
  O2-  O185  1  0.19885000  0.33101667  0.78240000  1.0
  O2-  O186  1  0.69885000  0.83101667  0.78240000  1.0
  O2-  O187  1  0.19885000  0.83101667  0.78240000  1.0
  O2-  O188  1  0.83565000  0.46781667  0.71760000  1.0
  O2-  O189  1  0.33565000  0.46781667  0.71760000  1.0
  O2-  O190  1  0.83565000  0.96781667  0.71760000  1.0
  O2-  O191  1  0.33565000  0.96781667  0.71760000  1.0
