# generated using pymatgen
data_LiTa2PO8
_symmetry_space_group_name_H-M   'P 1'
_cell_length_a   15.08193383
_cell_length_b   15.08193384
_cell_length_c   10.69708000
_cell_angle_alpha   90.02286833
_cell_angle_beta   90.02286833
_cell_angle_gamma   99.79181462
_symmetry_Int_Tables_number   1
_chemical_formula_structural   LiTa2PO8
_chemical_formula_sum   'Li16 Ta32 P16 O128'
_cell_volume   2397.76145312
_cell_formula_units_Z   16
loop_
 _symmetry_equiv_pos_site_id
 _symmetry_equiv_pos_as_xyz
  1  'x, y, z'
loop_
 _atom_type_symbol
 _atom_type_oxidation_number
  Li+  1.0
  Ta5+  5.0
  P5+  5.0
  O2-  -2.0
loop_
 _atom_site_type_symbol
 _atom_site_label
 _atom_site_symmetry_multiplicity
 _atom_site_fract_x
 _atom_site_fract_y
 _atom_site_fract_z
 _atom_site_occupancy
  Li+  Li0  1  0.13750000  0.25050000  0.10000000  1.0
  Li+  Li0  1  0.13750000  0.75050000  0.10000000  1.0
  Li+  Li1  1  0.74950000  0.36250000  0.40000000  1.0
  Li+  Li1  1  0.74950000  0.86250000  0.40000000  1.0
  Li+  Li2  1  0.55600000  0.19900000  0.36000000  1.0
  Li+  Li2  1  0.55600000  0.69900000  0.36000000  1.0
  Li+  Li3  1  0.30100000  0.44400000  0.14000000  1.0
  Li+  Li3  1  0.30100000  0.94400000  0.14000000  1.0
  Li+  Li4  1  0.44400000  0.30100000  0.64000000  1.0
  Li+  Li4  1  0.44400000  0.80100000  0.64000000  1.0
  Li+  Li5  1  0.94400000  0.30100000  0.64000000  1.0
  Li+  Li5  1  0.94400000  0.80100000  0.64000000  1.0
  Li+  Li6  1  0.19900000  0.05600000  0.86000000  1.0
  Li+  Li6  1  0.19900000  0.55600000  0.86000000  1.0
  Li+  Li7  1  0.69900000  0.05600000  0.86000000  1.0
  Li+  Li7  1  0.69900000  0.55600000  0.86000000  1.0
  Ta5+  Ta1  1  0.42504500  0.32934500  0.24450000  1.0
  Ta5+  Ta1  1  0.42504500  0.82934500  0.24450000  1.0
  Ta5+  Ta1  1  0.92504500  0.32934500  0.24450000  1.0
  Ta5+  Ta1  1  0.92504500  0.82934500  0.24450000  1.0
  Ta5+  Ta1  1  0.17065500  0.07495500  0.25550000  1.0
  Ta5+  Ta1  1  0.17065500  0.57495500  0.25550000  1.0
  Ta5+  Ta1  1  0.67065500  0.07495500  0.25550000  1.0
  Ta5+  Ta1  1  0.67065500  0.57495500  0.25550000  1.0
  Ta5+  Ta1  1  0.07495500  0.17065500  0.75550000  1.0
  Ta5+  Ta1  1  0.07495500  0.67065500  0.75550000  1.0
  Ta5+  Ta1  1  0.57495500  0.17065500  0.75550000  1.0
  Ta5+  Ta1  1  0.57495500  0.67065500  0.75550000  1.0
  Ta5+  Ta1  1  0.32934500  0.42504500  0.74450000  1.0
  Ta5+  Ta1  1  0.32934500  0.92504500  0.74450000  1.0
  Ta5+  Ta1  1  0.82934500  0.42504500  0.74450000  1.0
  Ta5+  Ta1  1  0.82934500  0.92504500  0.74450000  1.0
  Ta5+  Ta2  1  0.17315000  0.32685000  0.25000000  1.0
  Ta5+  Ta2  1  0.17315000  0.82685000  0.25000000  1.0
  Ta5+  Ta2  1  0.67315000  0.32685000  0.25000000  1.0
  Ta5+  Ta2  1  0.67315000  0.82685000  0.25000000  1.0
  Ta5+  Ta2  1  0.32685000  0.17315000  0.75000000  1.0
  Ta5+  Ta2  1  0.32685000  0.67315000  0.75000000  1.0
  Ta5+  Ta2  1  0.82685000  0.17315000  0.75000000  1.0
  Ta5+  Ta2  1  0.82685000  0.67315000  0.75000000  1.0
  Ta5+  Ta3  1  0.00000000  0.00000000  0.50000000  1.0
  Ta5+  Ta3  1  0.00000000  0.50000000  0.50000000  1.0
  Ta5+  Ta3  1  0.50000000  0.00000000  0.50000000  1.0
  Ta5+  Ta3  1  0.50000000  0.50000000  0.50000000  1.0
  Ta5+  Ta3  1  0.00000000  0.00000000  0.00000000  1.0
  Ta5+  Ta3  1  0.00000000  0.50000000  0.00000000  1.0
  Ta5+  Ta3  1  0.50000000  0.00000000  0.00000000  1.0
  Ta5+  Ta3  1  0.50000000  0.50000000  0.00000000  1.0
  P5+  P1  1  0.35515000  0.14555000  0.44040000  1.0
  P5+  P1  1  0.35515000  0.64555000  0.44040000  1.0
  P5+  P1  1  0.85515000  0.14555000  0.44040000  1.0
  P5+  P1  1  0.85515000  0.64555000  0.44040000  1.0
  P5+  P1  1  0.35445000  0.14485000  0.05960000  1.0
  P5+  P1  1  0.35445000  0.64485000  0.05960000  1.0
  P5+  P1  1  0.85445000  0.14485000  0.05960000  1.0
  P5+  P1  1  0.85445000  0.64485000  0.05960000  1.0
  P5+  P1  1  0.14485000  0.35445000  0.55960000  1.0
  P5+  P1  1  0.14485000  0.85445000  0.55960000  1.0
  P5+  P1  1  0.64485000  0.35445000  0.55960000  1.0
  P5+  P1  1  0.64485000  0.85445000  0.55960000  1.0
  P5+  P1  1  0.14555000  0.35515000  0.94040000  1.0
  P5+  P1  1  0.14555000  0.85515000  0.94040000  1.0
  P5+  P1  1  0.64555000  0.35515000  0.94040000  1.0
  P5+  P1  1  0.64555000  0.85515000  0.94040000  1.0
  O2-  O1  1  0.13870000  0.30440000  0.43230000  1.0
  O2-  O1  1  0.13870000  0.80440000  0.43230000  1.0
  O2-  O1  1  0.63870000  0.30440000  0.43230000  1.0
  O2-  O1  1  0.63870000  0.80440000  0.43230000  1.0
  O2-  O1  1  0.19560000  0.36130000  0.06770000  1.0
  O2-  O1  1  0.19560000  0.86130000  0.06770000  1.0
  O2-  O1  1  0.69560000  0.36130000  0.06770000  1.0
  O2-  O1  1  0.69560000  0.86130000  0.06770000  1.0
  O2-  O1  1  0.36130000  0.19560000  0.56770000  1.0
  O2-  O1  1  0.36130000  0.69560000  0.56770000  1.0
  O2-  O1  1  0.86130000  0.19560000  0.56770000  1.0
  O2-  O1  1  0.86130000  0.69560000  0.56770000  1.0
  O2-  O1  1  0.30440000  0.13870000  0.93230000  1.0
  O2-  O1  1  0.30440000  0.63870000  0.93230000  1.0
  O2-  O1  1  0.80440000  0.13870000  0.93230000  1.0
  O2-  O1  1  0.80440000  0.63870000  0.93230000  1.0
  O2-  O2  1  0.37770000  0.24060000  0.09390000  1.0
  O2-  O2  1  0.37770000  0.74060000  0.09390000  1.0
  O2-  O2  1  0.87770000  0.24060000  0.09390000  1.0
  O2-  O2  1  0.87770000  0.74060000  0.09390000  1.0
  O2-  O2  1  0.25940000  0.12230000  0.40610000  1.0
  O2-  O2  1  0.25940000  0.62230000  0.40610000  1.0
  O2-  O2  1  0.75940000  0.12230000  0.40610000  1.0
  O2-  O2  1  0.75940000  0.62230000  0.40610000  1.0
  O2-  O2  1  0.12230000  0.25940000  0.90610000  1.0
  O2-  O2  1  0.12230000  0.75940000  0.90610000  1.0
  O2-  O2  1  0.62230000  0.25940000  0.90610000  1.0
  O2-  O2  1  0.62230000  0.75940000  0.90610000  1.0
  O2-  O2  1  0.24060000  0.37770000  0.59390000  1.0
  O2-  O2  1  0.24060000  0.87770000  0.59390000  1.0
  O2-  O2  1  0.74060000  0.37770000  0.59390000  1.0
  O2-  O2  1  0.74060000  0.87770000  0.59390000  1.0
  O2-  O3  1  0.07410000  0.06770000  0.37290000  1.0
  O2-  O3  1  0.07410000  0.56770000  0.37290000  1.0
  O2-  O3  1  0.57410000  0.06770000  0.37290000  1.0
  O2-  O3  1  0.57410000  0.56770000  0.37290000  1.0
  O2-  O3  1  0.43230000  0.42590000  0.12710000  1.0
  O2-  O3  1  0.43230000  0.92590000  0.12710000  1.0
  O2-  O3  1  0.93230000  0.42590000  0.12710000  1.0
  O2-  O3  1  0.93230000  0.92590000  0.12710000  1.0
  O2-  O3  1  0.42590000  0.43230000  0.62710000  1.0
  O2-  O3  1  0.42590000  0.93230000  0.62710000  1.0
  O2-  O3  1  0.92590000  0.43230000  0.62710000  1.0
  O2-  O3  1  0.92590000  0.93230000  0.62710000  1.0
  O2-  O3  1  0.06770000  0.07410000  0.87290000  1.0
  O2-  O3  1  0.06770000  0.57410000  0.87290000  1.0
  O2-  O3  1  0.56770000  0.07410000  0.87290000  1.0
  O2-  O3  1  0.56770000  0.57410000  0.87290000  1.0
  O2-  O4  1  0.05850000  0.39400000  0.95030000  1.0
  O2-  O4  1  0.05850000  0.89400000  0.95030000  1.0
  O2-  O4  1  0.55850000  0.39400000  0.95030000  1.0
  O2-  O4  1  0.55850000  0.89400000  0.95030000  1.0
  O2-  O4  1  0.10600000  0.44150000  0.54970000  1.0
  O2-  O4  1  0.10600000  0.94150000  0.54970000  1.0
  O2-  O4  1  0.60600000  0.44150000  0.54970000  1.0
  O2-  O4  1  0.60600000  0.94150000  0.54970000  1.0
  O2-  O4  1  0.44150000  0.10600000  0.04970000  1.0
  O2-  O4  1  0.44150000  0.60600000  0.04970000  1.0
  O2-  O4  1  0.94150000  0.10600000  0.04970000  1.0
  O2-  O4  1  0.94150000  0.60600000  0.04970000  1.0
  O2-  O4  1  0.39400000  0.05850000  0.45030000  1.0
  O2-  O4  1  0.39400000  0.55850000  0.45030000  1.0
  O2-  O4  1  0.89400000  0.05850000  0.45030000  1.0
  O2-  O4  1  0.89400000  0.55850000  0.45030000  1.0
  O2-  O5  1  0.04495000  0.31075000  0.21210000  1.0
  O2-  O5  1  0.04495000  0.81075000  0.21210000  1.0
  O2-  O5  1  0.54495000  0.31075000  0.21210000  1.0
  O2-  O5  1  0.54495000  0.81075000  0.21210000  1.0
  O2-  O5  1  0.18925000  0.45505000  0.28790000  1.0
  O2-  O5  1  0.18925000  0.95505000  0.28790000  1.0
  O2-  O5  1  0.68925000  0.45505000  0.28790000  1.0
  O2-  O5  1  0.68925000  0.95505000  0.28790000  1.0
  O2-  O5  1  0.45505000  0.18925000  0.78790000  1.0
  O2-  O5  1  0.45505000  0.68925000  0.78790000  1.0
  O2-  O5  1  0.95505000  0.18925000  0.78790000  1.0
  O2-  O5  1  0.95505000  0.68925000  0.78790000  1.0
  O2-  O5  1  0.31075000  0.04495000  0.71210000  1.0
  O2-  O5  1  0.31075000  0.54495000  0.71210000  1.0
  O2-  O5  1  0.81075000  0.04495000  0.71210000  1.0
  O2-  O5  1  0.81075000  0.54495000  0.71210000  1.0
  O2-  O6  1  0.45940000  0.40270000  0.38390000  1.0
  O2-  O6  1  0.45940000  0.90270000  0.38390000  1.0
  O2-  O6  1  0.95940000  0.40270000  0.38390000  1.0
  O2-  O6  1  0.95940000  0.90270000  0.38390000  1.0
  O2-  O6  1  0.09730000  0.04060000  0.11610000  1.0
  O2-  O6  1  0.09730000  0.54060000  0.11610000  1.0
  O2-  O6  1  0.59730000  0.04060000  0.11610000  1.0
  O2-  O6  1  0.59730000  0.54060000  0.11610000  1.0
  O2-  O6  1  0.04060000  0.09730000  0.61610000  1.0
  O2-  O6  1  0.04060000  0.59730000  0.61610000  1.0
  O2-  O6  1  0.54060000  0.09730000  0.61610000  1.0
  O2-  O6  1  0.54060000  0.59730000  0.61610000  1.0
  O2-  O6  1  0.40270000  0.45940000  0.88390000  1.0
  O2-  O6  1  0.40270000  0.95940000  0.88390000  1.0
  O2-  O6  1  0.90270000  0.45940000  0.88390000  1.0
  O2-  O6  1  0.90270000  0.95940000  0.88390000  1.0
  O2-  O7  1  0.41180000  0.20950000  0.34630000  1.0
  O2-  O7  1  0.41180000  0.70950000  0.34630000  1.0
  O2-  O7  1  0.91180000  0.20950000  0.34630000  1.0
  O2-  O7  1  0.91180000  0.70950000  0.34630000  1.0
  O2-  O7  1  0.29050000  0.08820000  0.15370000  1.0
  O2-  O7  1  0.29050000  0.58820000  0.15370000  1.0
  O2-  O7  1  0.79050000  0.08820000  0.15370000  1.0
  O2-  O7  1  0.79050000  0.58820000  0.15370000  1.0
  O2-  O7  1  0.08820000  0.29050000  0.65370000  1.0
  O2-  O7  1  0.08820000  0.79050000  0.65370000  1.0
  O2-  O7  1  0.58820000  0.29050000  0.65370000  1.0
  O2-  O7  1  0.58820000  0.79050000  0.65370000  1.0
  O2-  O7  1  0.20950000  0.41180000  0.84630000  1.0
  O2-  O7  1  0.20950000  0.91180000  0.84630000  1.0
  O2-  O7  1  0.70950000  0.41180000  0.84630000  1.0
  O2-  O7  1  0.70950000  0.91180000  0.84630000  1.0
  O2-  O8  1  0.16435000  0.19885000  0.21760000  1.0
  O2-  O8  1  0.16435000  0.69885000  0.21760000  1.0
  O2-  O8  1  0.66435000  0.19885000  0.21760000  1.0
  O2-  O8  1  0.66435000  0.69885000  0.21760000  1.0
  O2-  O8  1  0.30115000  0.33565000  0.28240000  1.0
  O2-  O8  1  0.30115000  0.83565000  0.28240000  1.0
  O2-  O8  1  0.80115000  0.33565000  0.28240000  1.0
  O2-  O8  1  0.80115000  0.83565000  0.28240000  1.0
  O2-  O8  1  0.33565000  0.30115000  0.78240000  1.0
  O2-  O8  1  0.33565000  0.80115000  0.78240000  1.0
  O2-  O8  1  0.83565000  0.30115000  0.78240000  1.0
  O2-  O8  1  0.83565000  0.80115000  0.78240000  1.0
  O2-  O8  1  0.19885000  0.16435000  0.71760000  1.0
  O2-  O8  1  0.19885000  0.66435000  0.71760000  1.0
  O2-  O8  1  0.69885000  0.16435000  0.71760000  1.0
  O2-  O8  1  0.69885000  0.66435000  0.71760000  1.0
