# generated using pymatgen
data_Li15Sb3(PS10)2
_symmetry_space_group_name_H-M   'P 1'
_cell_length_a   7.92120000
_cell_length_b   31.55880000
_cell_length_c   13.57380000
_cell_angle_alpha   90.00000000
_cell_angle_beta   90.00000000
_cell_angle_gamma   90.00000000
_symmetry_Int_Tables_number   1
_chemical_formula_structural   Li15Sb3(PS10)2
_chemical_formula_sum   'Li60 Sb12 P8 S80'
_cell_volume   3393.22693577
_cell_formula_units_Z   4
loop_
 _symmetry_equiv_pos_site_id
 _symmetry_equiv_pos_as_xyz
  1  'x, y, z'
loop_
 _atom_type_symbol
 _atom_type_oxidation_number
  Li+  1.0
  Sb5+  5.0
  P5+  5.0
  S2-  -2.0
loop_
 _atom_site_type_symbol
 _atom_site_label
 _atom_site_symmetry_multiplicity
 _atom_site_fract_x
 _atom_site_fract_y
 _atom_site_fract_z
 _atom_site_occupancy
  Li+  Li0  1  0.25540000  0.90072000  0.66290000  1.0
  Li+  Li1  1  0.25225389  0.90386724  0.15850932  1.0
  Li+  Li2  1  0.25540000  0.70072000  0.66290000  1.0
  Li+  Li3  1  0.25540000  0.70072000  0.16290000  1.0
  Li+  Li4  1  0.25540000  0.50072000  0.66290000  1.0
  Li+  Li5  1  0.25540000  0.50072000  0.16290000  1.0
  Li+  Li6  1  0.25540000  0.30072000  0.66290000  1.0
  Li+  Li7  1  0.25977848  0.30140765  0.16419336  1.0
  Li+  Li8  1  0.25444652  0.10527552  0.65793085  1.0
  Li+  Li9  1  0.25540000  0.10072000  0.16290000  1.0
  Li+  Li10  1  0.24460000  0.80072000  0.33710000  1.0
  Li+  Li11  1  0.24525213  0.79765475  0.83862929  1.0
  Li+  Li12  1  0.24460000  0.60072000  0.33710000  1.0
  Li+  Li13  1  0.24460000  0.60072000  0.83710000  1.0
  Li+  Li14  1  0.24460000  0.40072000  0.33710000  1.0
  Li+  Li15  1  0.24460000  0.40072000  0.83710000  1.0
  Li+  Li16  1  0.24460000  0.20072000  0.33710000  1.0
  Li+  Li17  1  0.24460000  0.20072000  0.83710000  1.0
  Li+  Li18  1  0.24460000  0.00072000  0.33710000  1.0
  Li+  Li19  1  0.24460000  0.00072000  0.83710000  1.0
  Li+  Li20  1  0.75540000  0.80072000  0.33710000  1.0
  Li+  Li21  1  0.75540000  0.80072000  0.83710000  1.0
  Li+  Li22  1  0.75540000  0.60072000  0.33710000  1.0
  Li+  Li23  1  0.75540000  0.60072000  0.83710000  1.0
  Li+  Li24  1  0.75540000  0.40072000  0.33710000  1.0
  Li+  Li25  1  0.75540000  0.40072000  0.83710000  1.0
  Li+  Li26  1  0.75540000  0.20072000  0.33710000  1.0
  Li+  Li27  1  0.75540000  0.20072000  0.83710000  1.0
  Li+  Li28  1  0.75505863  0.99877892  0.33743642  1.0
  Li+  Li29  1  0.75540000  0.00072000  0.83710000  1.0
  Li+  Li30  1  0.74345275  0.90295014  0.66450039  1.0
  Li+  Li31  1  0.74460000  0.90072000  0.16290000  1.0
  Li+  Li32  1  0.74460000  0.70072000  0.66290000  1.0
  Li+  Li33  1  0.74450021  0.69989331  0.16275307  1.0
  Li+  Li34  1  0.74460000  0.50072000  0.66290000  1.0
  Li+  Li35  1  0.75232482  0.50091846  0.16023407  1.0
  Li+  Li36  1  0.74460000  0.30072000  0.66290000  1.0
  Li+  Li37  1  0.74362208  0.30151606  0.16244444  1.0
  Li+  Li38  1  0.74409668  0.10143488  0.66040881  1.0
  Li+  Li39  1  0.74460000  0.10072000  0.16290000  1.0
  Li+  Li40  1  0.00000000  0.89480000  0.42285000  1.0
  Li+  Li41  1  0.00000000  0.89480000  0.92285000  1.0
  Li+  Li42  1  0.00000000  0.69480000  0.42285000  1.0
  Li+  Li43  1  0.00000000  0.69480000  0.92285000  1.0
  Li+  Li44  1  0.00264042  0.49155919  0.42204929  1.0
  Li+  Li45  1  0.00000000  0.49480000  0.92285000  1.0
  Li+  Li46  1  0.00000000  0.29480000  0.42285000  1.0
  Li+  Li47  1  0.00000000  0.29480000  0.92285000  1.0
  Li+  Li48  1  0.00288132  0.09279538  0.42082234  1.0
  Li+  Li49  1  0.99813217  0.09691753  0.92357920  1.0
  Li+  Li50  1  0.50000000  0.99480000  0.57715000  1.0
  Li+  Li51  1  0.50000000  0.99480000  0.07715000  1.0
  Li+  Li52  1  0.50000000  0.79480000  0.57715000  1.0
  Li+  Li53  1  0.50213557  0.79715225  0.07595868  1.0
  Li+  Li54  1  0.50233419  0.59636721  0.57354591  1.0
  Li+  Li55  1  0.49783148  0.59596144  0.07538221  1.0
  Li+  Li56  1  0.50000000  0.39480000  0.57715000  1.0
  Li+  Li57  1  0.50000000  0.39480000  0.07715000  1.0
  Li+  Li58  1  0.50000000  0.19480000  0.57715000  1.0
  Li+  Li59  1  0.50000000  0.19480000  0.07715000  1.0
  Sb5+  Sb60  1  0.00000000  0.80000000  0.58713500  1.0
  Sb5+  Sb61  1  0.99813397  0.80443343  0.08221900  1.0
  Sb5+  Sb62  1  0.00000000  0.40000000  0.58713500  1.0
  Sb5+  Sb63  1  0.00000000  0.40000000  0.08713500  1.0
  Sb5+  Sb64  1  0.49949777  0.89950878  0.41794641  1.0
  Sb5+  Sb65  1  0.50000000  0.90000000  0.91286500  1.0
  Sb5+  Sb66  1  0.50000000  0.70000000  0.41286500  1.0
  Sb5+  Sb67  1  0.50000000  0.70000000  0.91286500  1.0
  Sb5+  Sb68  1  0.50000000  0.30000000  0.41286500  1.0
  Sb5+  Sb69  1  0.50000000  0.30000000  0.91286500  1.0
  Sb5+  Sb70  1  0.50000000  0.10000000  0.41286500  1.0
  Sb5+  Sb71  1  0.50000000  0.10000000  0.91286500  1.0
  P5+  P72  1  0.00000000  0.00000000  0.58713500  1.0
  P5+  P73  1  0.00000000  0.00000000  0.08713500  1.0
  P5+  P74  1  0.00000000  0.60000000  0.58713500  1.0
  P5+  P75  1  0.99912346  0.59962933  0.08578951  1.0
  P5+  P76  1  0.00000000  0.20000000  0.58713500  1.0
  P5+  P77  1  0.00000000  0.20000000  0.08713500  1.0
  P5+  P78  1  0.50000000  0.50000000  0.41286500  1.0
  P5+  P79  1  0.50000000  0.50000000  0.91286500  1.0
  S2-  S80  1  0.23400000  0.97632000  0.66695000  1.0
  S2-  S81  1  0.23400000  0.97632000  0.16695000  1.0
  S2-  S82  1  0.23417031  0.77891497  0.66967977  1.0
  S2-  S83  1  0.23059637  0.77374415  0.16518544  1.0
  S2-  S84  1  0.23400000  0.57632000  0.66695000  1.0
  S2-  S85  1  0.23289484  0.57688398  0.16828518  1.0
  S2-  S86  1  0.23314212  0.37562350  0.66828928  1.0
  S2-  S87  1  0.23400000  0.37632000  0.16695000  1.0
  S2-  S88  1  0.23400000  0.17632000  0.66695000  1.0
  S2-  S89  1  0.23400000  0.17632000  0.16695000  1.0
  S2-  S90  1  0.26600000  0.87632000  0.33305000  1.0
  S2-  S91  1  0.26600000  0.87632000  0.83305000  1.0
  S2-  S92  1  0.26600000  0.67632000  0.33305000  1.0
  S2-  S93  1  0.26600000  0.67632000  0.83305000  1.0
  S2-  S94  1  0.26811482  0.47445438  0.33147165  1.0
  S2-  S95  1  0.26600000  0.47632000  0.83305000  1.0
  S2-  S96  1  0.26402673  0.27625603  0.33402403  1.0
  S2-  S97  1  0.26600000  0.27632000  0.83305000  1.0
  S2-  S98  1  0.26600000  0.07632000  0.33305000  1.0
  S2-  S99  1  0.26600000  0.07632000  0.83305000  1.0
  S2-  S100  1  0.74151040  0.87591401  0.33530328  1.0
  S2-  S101  1  0.73400000  0.87632000  0.83305000  1.0
  S2-  S102  1  0.73400000  0.67632000  0.33305000  1.0
  S2-  S103  1  0.73400000  0.67632000  0.83305000  1.0
  S2-  S104  1  0.73400000  0.47632000  0.33305000  1.0
  S2-  S105  1  0.73400000  0.47632000  0.83305000  1.0
  S2-  S106  1  0.73400000  0.27632000  0.33305000  1.0
  S2-  S107  1  0.73511114  0.27757023  0.83647102  1.0
  S2-  S108  1  0.73400000  0.07632000  0.33305000  1.0
  S2-  S109  1  0.73400000  0.07632000  0.83305000  1.0
  S2-  S110  1  0.76395989  0.97459670  0.66391668  1.0
  S2-  S111  1  0.76600000  0.97632000  0.16695000  1.0
  S2-  S112  1  0.76600000  0.77632000  0.66695000  1.0
  S2-  S113  1  0.77094460  0.77393208  0.16715567  1.0
  S2-  S114  1  0.76600000  0.57632000  0.66695000  1.0
  S2-  S115  1  0.76945065  0.57628149  0.16772606  1.0
  S2-  S116  1  0.76600000  0.37632000  0.66695000  1.0
  S2-  S117  1  0.76600000  0.37632000  0.16695000  1.0
  S2-  S118  1  0.76804457  0.17478541  0.66788938  1.0
  S2-  S119  1  0.76600000  0.17632000  0.16695000  1.0
  S2-  S120  1  0.00000000  0.97638000  0.43100000  1.0
  S2-  S121  1  0.00000000  0.97638000  0.93100000  1.0
  S2-  S122  1  0.00000000  0.77638000  0.43100000  1.0
  S2-  S123  1  0.00000000  0.77638000  0.93100000  1.0
  S2-  S124  1  0.99642023  0.57823651  0.42938256  1.0
  S2-  S125  1  0.99786123  0.57707845  0.92889091  1.0
  S2-  S126  1  0.00000000  0.37638000  0.43100000  1.0
  S2-  S127  1  0.00000000  0.37638000  0.93100000  1.0
  S2-  S128  1  0.00000000  0.17638000  0.43100000  1.0
  S2-  S129  1  0.00000000  0.17638000  0.93100000  1.0
  S2-  S130  1  0.49972592  0.87625302  0.57012421  1.0
  S2-  S131  1  0.50346233  0.87563168  0.06987108  1.0
  S2-  S132  1  0.50000000  0.67638000  0.56900000  1.0
  S2-  S133  1  0.50000000  0.67638000  0.06900000  1.0
  S2-  S134  1  0.50000000  0.47638000  0.56900000  1.0
  S2-  S135  1  0.50000000  0.47638000  0.06900000  1.0
  S2-  S136  1  0.50000000  0.27638000  0.56900000  1.0
  S2-  S137  1  0.50000000  0.27638000  0.06900000  1.0
  S2-  S138  1  0.50000000  0.07638000  0.56900000  1.0
  S2-  S139  1  0.50000000  0.07638000  0.06900000  1.0
  S2-  S140  1  0.00000000  0.87186000  0.59195000  1.0
  S2-  S141  1  0.00054494  0.87293661  0.09804301  1.0
  S2-  S142  1  0.00000000  0.67186000  0.59195000  1.0
  S2-  S143  1  0.00000000  0.67186000  0.09195000  1.0
  S2-  S144  1  0.00000000  0.47186000  0.59195000  1.0
  S2-  S145  1  0.00000000  0.47186000  0.09195000  1.0
  S2-  S146  1  0.00334956  0.27629309  0.59027949  1.0
  S2-  S147  1  0.00000000  0.27186000  0.09195000  1.0
  S2-  S148  1  0.00000000  0.07186000  0.59195000  1.0
  S2-  S149  1  0.00000000  0.07186000  0.09195000  1.0
  S2-  S150  1  0.50000000  0.97186000  0.40805000  1.0
  S2-  S151  1  0.50000000  0.97186000  0.90805000  1.0
  S2-  S152  1  0.50000000  0.77186000  0.40805000  1.0
  S2-  S153  1  0.50000000  0.77186000  0.90805000  1.0
  S2-  S154  1  0.50000000  0.57186000  0.40805000  1.0
  S2-  S155  1  0.50509323  0.57134692  0.90612014  1.0
  S2-  S156  1  0.50000000  0.37186000  0.40805000  1.0
  S2-  S157  1  0.50280902  0.37476839  0.90954101  1.0
  S2-  S158  1  0.50000000  0.17186000  0.40805000  1.0
  S2-  S159  1  0.50030952  0.17278964  0.90739036  1.0
