# generated using pymatgen
data_Li15Sb3(PS10)2
_symmetry_space_group_name_H-M   'P 1'
_cell_length_a   13.59364160
_cell_length_b   7.93277887
_cell_length_c   31.60493131
_cell_angle_alpha   90.00000000
_cell_angle_beta   90.00000000
_cell_angle_gamma   90.00000000
_symmetry_Int_Tables_number   1
_chemical_formula_structural   Li15Sb3(PS10)2
_chemical_formula_sum   'Li60 Sb12 P8 S80'
_cell_volume   3408.12891964
_cell_formula_units_Z   4
loop_
 _symmetry_equiv_pos_site_id
 _symmetry_equiv_pos_as_xyz
  1  'x, y, z'
loop_
 _atom_type_symbol
 _atom_type_oxidation_number
  Li+  1.0
  Sb5+  5.0
  P5+  5.0
  S2-  -2.0
loop_
 _atom_site_type_symbol
 _atom_site_label
 _atom_site_symmetry_multiplicity
 _atom_site_fract_x
 _atom_site_fract_y
 _atom_site_fract_z
 _atom_site_occupancy
  Li+  Li0  1  0.91290000  0.41126667  0.09928000  1.0
  Li+  Li1  1  0.41290000  0.41126667  0.09928000  1.0
  Li+  Li2  1  0.91290000  0.41126667  0.29928000  1.0
  Li+  Li3  1  0.41290000  0.41126667  0.29928000  1.0
  Li+  Li4  1  0.91290000  0.41126667  0.49928000  1.0
  Li+  Li5  1  0.41290000  0.41126667  0.49928000  1.0
  Li+  Li6  1  0.91290000  0.41126667  0.69928000  1.0
  Li+  Li7  1  0.41290000  0.41126667  0.69928000  1.0
  Li+  Li8  1  0.91290000  0.41126667  0.89928000  1.0
  Li+  Li9  1  0.41290000  0.41126667  0.89928000  1.0
  Li+  Li10  1  0.58710000  0.42206667  0.19928000  1.0
  Li+  Li11  1  0.08710000  0.42206667  0.19928000  1.0
  Li+  Li12  1  0.58710000  0.42206667  0.39928000  1.0
  Li+  Li13  1  0.08710000  0.42206667  0.39928000  1.0
  Li+  Li14  1  0.58710000  0.42206667  0.59928000  1.0
  Li+  Li15  1  0.08710000  0.42206667  0.59928000  1.0
  Li+  Li16  1  0.58710000  0.42206667  0.79928000  1.0
  Li+  Li17  1  0.08710000  0.42206667  0.79928000  1.0
  Li+  Li18  1  0.58710000  0.42206667  0.99928000  1.0
  Li+  Li19  1  0.08710000  0.42206667  0.99928000  1.0
  Li+  Li20  1  0.58710000  0.91126667  0.19928000  1.0
  Li+  Li21  1  0.08710000  0.91126667  0.19928000  1.0
  Li+  Li22  1  0.58710000  0.91126667  0.39928000  1.0
  Li+  Li23  1  0.08710000  0.91126667  0.39928000  1.0
  Li+  Li24  1  0.58710000  0.91126667  0.59928000  1.0
  Li+  Li25  1  0.08710000  0.91126667  0.59928000  1.0
  Li+  Li26  1  0.58710000  0.91126667  0.79928000  1.0
  Li+  Li27  1  0.08710000  0.91126667  0.79928000  1.0
  Li+  Li28  1  0.58710000  0.91126667  0.99928000  1.0
  Li+  Li29  1  0.08710000  0.91126667  0.99928000  1.0
  Li+  Li30  1  0.91290000  0.92206667  0.09928000  1.0
  Li+  Li31  1  0.41290000  0.92206667  0.09928000  1.0
  Li+  Li32  1  0.91290000  0.92206667  0.29928000  1.0
  Li+  Li33  1  0.41290000  0.92206667  0.29928000  1.0
  Li+  Li34  1  0.91290000  0.92206667  0.49928000  1.0
  Li+  Li35  1  0.41290000  0.92206667  0.49928000  1.0
  Li+  Li36  1  0.91290000  0.92206667  0.69928000  1.0
  Li+  Li37  1  0.41290000  0.92206667  0.69928000  1.0
  Li+  Li38  1  0.91290000  0.92206667  0.89928000  1.0
  Li+  Li39  1  0.41290000  0.92206667  0.89928000  1.0
  Li+  Li40  1  0.67285000  0.66666667  0.10520000  1.0
  Li+  Li41  1  0.17285000  0.66666667  0.10520000  1.0
  Li+  Li42  1  0.67285000  0.66666667  0.30520000  1.0
  Li+  Li43  1  0.17285000  0.66666667  0.30520000  1.0
  Li+  Li44  1  0.67285000  0.66666667  0.50520000  1.0
  Li+  Li45  1  0.17285000  0.66666667  0.50520000  1.0
  Li+  Li46  1  0.67285000  0.66666667  0.70520000  1.0
  Li+  Li47  1  0.17285000  0.66666667  0.70520000  1.0
  Li+  Li48  1  0.67285000  0.66666667  0.90520000  1.0
  Li+  Li49  1  0.17285000  0.66666667  0.90520000  1.0
  Li+  Li50  1  0.82715000  0.16666667  0.00520000  1.0
  Li+  Li51  1  0.32715000  0.16666667  0.00520000  1.0
  Li+  Li52  1  0.82715000  0.16666667  0.20520000  1.0
  Li+  Li53  1  0.32715000  0.16666667  0.20520000  1.0
  Li+  Li54  1  0.82715000  0.16666667  0.40520000  1.0
  Li+  Li55  1  0.32715000  0.16666667  0.40520000  1.0
  Li+  Li56  1  0.82715000  0.16666667  0.60520000  1.0
  Li+  Li57  1  0.32715000  0.16666667  0.60520000  1.0
  Li+  Li58  1  0.82715000  0.16666667  0.80520000  1.0
  Li+  Li59  1  0.32715000  0.16666667  0.80520000  1.0
  Sb5+  Sb60  1  0.83713500  0.66666667  0.20000000  1.0
  Sb5+  Sb61  1  0.33713500  0.66666667  0.20000000  1.0
  Sb5+  Sb62  1  0.83713500  0.66666667  0.60000000  1.0
  Sb5+  Sb63  1  0.33713500  0.66666667  0.60000000  1.0
  Sb5+  Sb64  1  0.66286500  0.16666667  0.10000000  1.0
  Sb5+  Sb65  1  0.16286500  0.16666667  0.10000000  1.0
  Sb5+  Sb66  1  0.66286500  0.16666667  0.30000000  1.0
  Sb5+  Sb67  1  0.16286500  0.16666667  0.30000000  1.0
  Sb5+  Sb68  1  0.66286500  0.16666667  0.70000000  1.0
  Sb5+  Sb69  1  0.16286500  0.16666667  0.70000000  1.0
  Sb5+  Sb70  1  0.66286500  0.16666667  0.90000000  1.0
  Sb5+  Sb71  1  0.16286500  0.16666667  0.90000000  1.0
  P5+  P72  1  0.83713500  0.66666667  0.00000000  1.0
  P5+  P73  1  0.33713500  0.66666667  0.00000000  1.0
  P5+  P74  1  0.83713500  0.66666667  0.40000000  1.0
  P5+  P75  1  0.33713500  0.66666667  0.40000000  1.0
  P5+  P76  1  0.83713500  0.66666667  0.80000000  1.0
  P5+  P77  1  0.33713500  0.66666667  0.80000000  1.0
  P5+  P78  1  0.66286500  0.16666667  0.50000000  1.0
  P5+  P79  1  0.16286500  0.16666667  0.50000000  1.0
  S2-  S80  1  0.91695000  0.43266667  0.02368000  1.0
  S2-  S81  1  0.41695000  0.43266667  0.02368000  1.0
  S2-  S82  1  0.91695000  0.43266667  0.22368000  1.0
  S2-  S83  1  0.41695000  0.43266667  0.22368000  1.0
  S2-  S84  1  0.91695000  0.43266667  0.42368000  1.0
  S2-  S85  1  0.41695000  0.43266667  0.42368000  1.0
  S2-  S86  1  0.91695000  0.43266667  0.62368000  1.0
  S2-  S87  1  0.41695000  0.43266667  0.62368000  1.0
  S2-  S88  1  0.91695000  0.43266667  0.82368000  1.0
  S2-  S89  1  0.41695000  0.43266667  0.82368000  1.0
  S2-  S90  1  0.58305000  0.40066667  0.12368000  1.0
  S2-  S91  1  0.08305000  0.40066667  0.12368000  1.0
  S2-  S92  1  0.58305000  0.40066667  0.32368000  1.0
  S2-  S93  1  0.08305000  0.40066667  0.32368000  1.0
  S2-  S94  1  0.58305000  0.40066667  0.52368000  1.0
  S2-  S95  1  0.08305000  0.40066667  0.52368000  1.0
  S2-  S96  1  0.58305000  0.40066667  0.72368000  1.0
  S2-  S97  1  0.08305000  0.40066667  0.72368000  1.0
  S2-  S98  1  0.58305000  0.40066667  0.92368000  1.0
  S2-  S99  1  0.08305000  0.40066667  0.92368000  1.0
  S2-  S100  1  0.58305000  0.93266667  0.12368000  1.0
  S2-  S101  1  0.08305000  0.93266667  0.12368000  1.0
  S2-  S102  1  0.58305000  0.93266667  0.32368000  1.0
  S2-  S103  1  0.08305000  0.93266667  0.32368000  1.0
  S2-  S104  1  0.58305000  0.93266667  0.52368000  1.0
  S2-  S105  1  0.08305000  0.93266667  0.52368000  1.0
  S2-  S106  1  0.58305000  0.93266667  0.72368000  1.0
  S2-  S107  1  0.08305000  0.93266667  0.72368000  1.0
  S2-  S108  1  0.58305000  0.93266667  0.92368000  1.0
  S2-  S109  1  0.08305000  0.93266667  0.92368000  1.0
  S2-  S110  1  0.91695000  0.90066667  0.02368000  1.0
  S2-  S111  1  0.41695000  0.90066667  0.02368000  1.0
  S2-  S112  1  0.91695000  0.90066667  0.22368000  1.0
  S2-  S113  1  0.41695000  0.90066667  0.22368000  1.0
  S2-  S114  1  0.91695000  0.90066667  0.42368000  1.0
  S2-  S115  1  0.41695000  0.90066667  0.42368000  1.0
  S2-  S116  1  0.91695000  0.90066667  0.62368000  1.0
  S2-  S117  1  0.41695000  0.90066667  0.62368000  1.0
  S2-  S118  1  0.91695000  0.90066667  0.82368000  1.0
  S2-  S119  1  0.41695000  0.90066667  0.82368000  1.0
  S2-  S120  1  0.68100000  0.66666667  0.02362000  1.0
  S2-  S121  1  0.18100000  0.66666667  0.02362000  1.0
  S2-  S122  1  0.68100000  0.66666667  0.22362000  1.0
  S2-  S123  1  0.18100000  0.66666667  0.22362000  1.0
  S2-  S124  1  0.68100000  0.66666667  0.42362000  1.0
  S2-  S125  1  0.18100000  0.66666667  0.42362000  1.0
  S2-  S126  1  0.68100000  0.66666667  0.62362000  1.0
  S2-  S127  1  0.18100000  0.66666667  0.62362000  1.0
  S2-  S128  1  0.68100000  0.66666667  0.82362000  1.0
  S2-  S129  1  0.18100000  0.66666667  0.82362000  1.0
  S2-  S130  1  0.81900000  0.16666667  0.12362000  1.0
  S2-  S131  1  0.31900000  0.16666667  0.12362000  1.0
  S2-  S132  1  0.81900000  0.16666667  0.32362000  1.0
  S2-  S133  1  0.31900000  0.16666667  0.32362000  1.0
  S2-  S134  1  0.81900000  0.16666667  0.52362000  1.0
  S2-  S135  1  0.31900000  0.16666667  0.52362000  1.0
  S2-  S136  1  0.81900000  0.16666667  0.72362000  1.0
  S2-  S137  1  0.31900000  0.16666667  0.72362000  1.0
  S2-  S138  1  0.81900000  0.16666667  0.92362000  1.0
  S2-  S139  1  0.31900000  0.16666667  0.92362000  1.0
  S2-  S140  1  0.84195000  0.66666667  0.12814000  1.0
  S2-  S141  1  0.34195000  0.66666667  0.12814000  1.0
  S2-  S142  1  0.84195000  0.66666667  0.32814000  1.0
  S2-  S143  1  0.34195000  0.66666667  0.32814000  1.0
  S2-  S144  1  0.84195000  0.66666667  0.52814000  1.0
  S2-  S145  1  0.34195000  0.66666667  0.52814000  1.0
  S2-  S146  1  0.84195000  0.66666667  0.72814000  1.0
  S2-  S147  1  0.34195000  0.66666667  0.72814000  1.0
  S2-  S148  1  0.84195000  0.66666667  0.92814000  1.0
  S2-  S149  1  0.34195000  0.66666667  0.92814000  1.0
  S2-  S150  1  0.65805000  0.16666667  0.02814000  1.0
  S2-  S151  1  0.15805000  0.16666667  0.02814000  1.0
  S2-  S152  1  0.65805000  0.16666667  0.22814000  1.0
  S2-  S153  1  0.15805000  0.16666667  0.22814000  1.0
  S2-  S154  1  0.65805000  0.16666667  0.42814000  1.0
  S2-  S155  1  0.15805000  0.16666667  0.42814000  1.0
  S2-  S156  1  0.65805000  0.16666667  0.62814000  1.0
  S2-  S157  1  0.15805000  0.16666667  0.62814000  1.0
  S2-  S158  1  0.65805000  0.16666667  0.82814000  1.0
  S2-  S159  1  0.15805000  0.16666667  0.82814000  1.0
