# generated using pymatgen
data_Li15Sb3(PS10)2
_symmetry_space_group_name_H-M   'P 1'
_cell_length_a   7.92120000
_cell_length_b   13.57380000
_cell_length_c   31.55880000
_cell_angle_alpha   90.00000000
_cell_angle_beta   90.00000000
_cell_angle_gamma   90.00000000
_symmetry_Int_Tables_number   1
_chemical_formula_structural   Li15Sb3(PS10)2
_chemical_formula_sum   'Li60 Sb12 P8 S80'
_cell_volume   3393.22693577
_cell_formula_units_Z   4
loop_
 _symmetry_equiv_pos_site_id
 _symmetry_equiv_pos_as_xyz
  1  'x, y, z'
loop_
 _atom_type_symbol
 _atom_type_oxidation_number
  Li+  1.0
  Sb5+  5.0
  P5+  5.0
  S2-  -2.0
loop_
 _atom_site_type_symbol
 _atom_site_label
 _atom_site_symmetry_multiplicity
 _atom_site_fract_x
 _atom_site_fract_y
 _atom_site_fract_z
 _atom_site_occupancy
  Li+  Li1  1  0.25540000  0.08710000  0.09928000  1.0
  Li+  Li1  1  0.25540000  0.58710000  0.09928000  1.0
  Li+  Li1  1  0.25540000  0.08710000  0.29928000  1.0
  Li+  Li1  1  0.25540000  0.58710000  0.29928000  1.0
  Li+  Li1  1  0.25540000  0.08710000  0.49928000  1.0
  Li+  Li1  1  0.25540000  0.58710000  0.49928000  1.0
  Li+  Li1  1  0.25540000  0.08710000  0.69928000  1.0
  Li+  Li1  1  0.25540000  0.58710000  0.69928000  1.0
  Li+  Li1  1  0.25540000  0.08710000  0.89928000  1.0
  Li+  Li1  1  0.25540000  0.58710000  0.89928000  1.0
  Li+  Li1  1  0.24460000  0.41290000  0.19928000  1.0
  Li+  Li1  1  0.24460000  0.91290000  0.19928000  1.0
  Li+  Li1  1  0.24460000  0.41290000  0.39928000  1.0
  Li+  Li1  1  0.24460000  0.91290000  0.39928000  1.0
  Li+  Li1  1  0.24460000  0.41290000  0.59928000  1.0
  Li+  Li1  1  0.24460000  0.91290000  0.59928000  1.0
  Li+  Li1  1  0.24460000  0.41290000  0.79928000  1.0
  Li+  Li1  1  0.24460000  0.91290000  0.79928000  1.0
  Li+  Li1  1  0.24460000  0.41290000  0.99928000  1.0
  Li+  Li1  1  0.24460000  0.91290000  0.99928000  1.0
  Li+  Li1  1  0.75540000  0.41290000  0.19928000  1.0
  Li+  Li1  1  0.75540000  0.91290000  0.19928000  1.0
  Li+  Li1  1  0.75540000  0.41290000  0.39928000  1.0
  Li+  Li1  1  0.75540000  0.91290000  0.39928000  1.0
  Li+  Li1  1  0.75540000  0.41290000  0.59928000  1.0
  Li+  Li1  1  0.75540000  0.91290000  0.59928000  1.0
  Li+  Li1  1  0.75540000  0.41290000  0.79928000  1.0
  Li+  Li1  1  0.75540000  0.91290000  0.79928000  1.0
  Li+  Li1  1  0.75540000  0.41290000  0.99928000  1.0
  Li+  Li1  1  0.75540000  0.91290000  0.99928000  1.0
  Li+  Li1  1  0.74460000  0.08710000  0.09928000  1.0
  Li+  Li1  1  0.74460000  0.58710000  0.09928000  1.0
  Li+  Li1  1  0.74460000  0.08710000  0.29928000  1.0
  Li+  Li1  1  0.74460000  0.58710000  0.29928000  1.0
  Li+  Li1  1  0.74460000  0.08710000  0.49928000  1.0
  Li+  Li1  1  0.74460000  0.58710000  0.49928000  1.0
  Li+  Li1  1  0.74460000  0.08710000  0.69928000  1.0
  Li+  Li1  1  0.74460000  0.58710000  0.69928000  1.0
  Li+  Li1  1  0.74460000  0.08710000  0.89928000  1.0
  Li+  Li1  1  0.74460000  0.58710000  0.89928000  1.0
  Li+  Li2  1  0.00000000  0.32715000  0.10520000  1.0
  Li+  Li2  1  0.00000000  0.82715000  0.10520000  1.0
  Li+  Li2  1  0.00000000  0.32715000  0.30520000  1.0
  Li+  Li2  1  0.00000000  0.82715000  0.30520000  1.0
  Li+  Li2  1  0.00000000  0.32715000  0.50520000  1.0
  Li+  Li2  1  0.00000000  0.82715000  0.50520000  1.0
  Li+  Li2  1  0.00000000  0.32715000  0.70520000  1.0
  Li+  Li2  1  0.00000000  0.82715000  0.70520000  1.0
  Li+  Li2  1  0.00000000  0.32715000  0.90520000  1.0
  Li+  Li2  1  0.00000000  0.82715000  0.90520000  1.0
  Li+  Li2  1  0.50000000  0.17285000  0.00520000  1.0
  Li+  Li2  1  0.50000000  0.67285000  0.00520000  1.0
  Li+  Li2  1  0.50000000  0.17285000  0.20520000  1.0
  Li+  Li2  1  0.50000000  0.67285000  0.20520000  1.0
  Li+  Li2  1  0.50000000  0.17285000  0.40520000  1.0
  Li+  Li2  1  0.50000000  0.67285000  0.40520000  1.0
  Li+  Li2  1  0.50000000  0.17285000  0.60520000  1.0
  Li+  Li2  1  0.50000000  0.67285000  0.60520000  1.0
  Li+  Li2  1  0.50000000  0.17285000  0.80520000  1.0
  Li+  Li2  1  0.50000000  0.67285000  0.80520000  1.0
  Sb5+  Sb30  1  0.00000000  0.16286500  0.20000000  1.0
  Sb5+  Sb30  1  0.00000000  0.66286500  0.20000000  1.0
  Sb5+  Sb31  1  0.00000000  0.16286500  0.60000000  1.0
  Sb5+  Sb31  1  0.00000000  0.66286500  0.60000000  1.0
  Sb5+  Sb32  1  0.50000000  0.33713500  0.10000000  1.0
  Sb5+  Sb32  1  0.50000000  0.83713500  0.10000000  1.0
  Sb5+  Sb33  1  0.50000000  0.33713500  0.30000000  1.0
  Sb5+  Sb33  1  0.50000000  0.83713500  0.30000000  1.0
  Sb5+  Sb34  1  0.50000000  0.33713500  0.70000000  1.0
  Sb5+  Sb34  1  0.50000000  0.83713500  0.70000000  1.0
  Sb5+  Sb35  1  0.50000000  0.33713500  0.90000000  1.0
  Sb5+  Sb35  1  0.50000000  0.83713500  0.90000000  1.0
  P5+  P36  1  0.00000000  0.16286500  0.00000000  1.0
  P5+  P36  1  0.00000000  0.66286500  0.00000000  1.0
  P5+  P37  1  0.00000000  0.16286500  0.40000000  1.0
  P5+  P37  1  0.00000000  0.66286500  0.40000000  1.0
  P5+  P38  1  0.00000000  0.16286500  0.80000000  1.0
  P5+  P38  1  0.00000000  0.66286500  0.80000000  1.0
  P5+  P39  1  0.50000000  0.33713500  0.50000000  1.0
  P5+  P39  1  0.50000000  0.83713500  0.50000000  1.0
  S2-  S1  1  0.23400000  0.08305000  0.02368000  1.0
  S2-  S1  1  0.23400000  0.58305000  0.02368000  1.0
  S2-  S1  1  0.23400000  0.08305000  0.22368000  1.0
  S2-  S1  1  0.23400000  0.58305000  0.22368000  1.0
  S2-  S1  1  0.23400000  0.08305000  0.42368000  1.0
  S2-  S1  1  0.23400000  0.58305000  0.42368000  1.0
  S2-  S1  1  0.23400000  0.08305000  0.62368000  1.0
  S2-  S1  1  0.23400000  0.58305000  0.62368000  1.0
  S2-  S1  1  0.23400000  0.08305000  0.82368000  1.0
  S2-  S1  1  0.23400000  0.58305000  0.82368000  1.0
  S2-  S1  1  0.26600000  0.41695000  0.12368000  1.0
  S2-  S1  1  0.26600000  0.91695000  0.12368000  1.0
  S2-  S1  1  0.26600000  0.41695000  0.32368000  1.0
  S2-  S1  1  0.26600000  0.91695000  0.32368000  1.0
  S2-  S1  1  0.26600000  0.41695000  0.52368000  1.0
  S2-  S1  1  0.26600000  0.91695000  0.52368000  1.0
  S2-  S1  1  0.26600000  0.41695000  0.72368000  1.0
  S2-  S1  1  0.26600000  0.91695000  0.72368000  1.0
  S2-  S1  1  0.26600000  0.41695000  0.92368000  1.0
  S2-  S1  1  0.26600000  0.91695000  0.92368000  1.0
  S2-  S1  1  0.73400000  0.41695000  0.12368000  1.0
  S2-  S1  1  0.73400000  0.91695000  0.12368000  1.0
  S2-  S1  1  0.73400000  0.41695000  0.32368000  1.0
  S2-  S1  1  0.73400000  0.91695000  0.32368000  1.0
  S2-  S1  1  0.73400000  0.41695000  0.52368000  1.0
  S2-  S1  1  0.73400000  0.91695000  0.52368000  1.0
  S2-  S1  1  0.73400000  0.41695000  0.72368000  1.0
  S2-  S1  1  0.73400000  0.91695000  0.72368000  1.0
  S2-  S1  1  0.73400000  0.41695000  0.92368000  1.0
  S2-  S1  1  0.73400000  0.91695000  0.92368000  1.0
  S2-  S1  1  0.76600000  0.08305000  0.02368000  1.0
  S2-  S1  1  0.76600000  0.58305000  0.02368000  1.0
  S2-  S1  1  0.76600000  0.08305000  0.22368000  1.0
  S2-  S1  1  0.76600000  0.58305000  0.22368000  1.0
  S2-  S1  1  0.76600000  0.08305000  0.42368000  1.0
  S2-  S1  1  0.76600000  0.58305000  0.42368000  1.0
  S2-  S1  1  0.76600000  0.08305000  0.62368000  1.0
  S2-  S1  1  0.76600000  0.58305000  0.62368000  1.0
  S2-  S1  1  0.76600000  0.08305000  0.82368000  1.0
  S2-  S1  1  0.76600000  0.58305000  0.82368000  1.0
  S2-  S2  1  0.00000000  0.31900000  0.02362000  1.0
  S2-  S2  1  0.00000000  0.81900000  0.02362000  1.0
  S2-  S2  1  0.00000000  0.31900000  0.22362000  1.0
  S2-  S2  1  0.00000000  0.81900000  0.22362000  1.0
  S2-  S2  1  0.00000000  0.31900000  0.42362000  1.0
  S2-  S2  1  0.00000000  0.81900000  0.42362000  1.0
  S2-  S2  1  0.00000000  0.31900000  0.62362000  1.0
  S2-  S2  1  0.00000000  0.81900000  0.62362000  1.0
  S2-  S2  1  0.00000000  0.31900000  0.82362000  1.0
  S2-  S2  1  0.00000000  0.81900000  0.82362000  1.0
  S2-  S2  1  0.50000000  0.18100000  0.12362000  1.0
  S2-  S2  1  0.50000000  0.68100000  0.12362000  1.0
  S2-  S2  1  0.50000000  0.18100000  0.32362000  1.0
  S2-  S2  1  0.50000000  0.68100000  0.32362000  1.0
  S2-  S2  1  0.50000000  0.18100000  0.52362000  1.0
  S2-  S2  1  0.50000000  0.68100000  0.52362000  1.0
  S2-  S2  1  0.50000000  0.18100000  0.72362000  1.0
  S2-  S2  1  0.50000000  0.68100000  0.72362000  1.0
  S2-  S2  1  0.50000000  0.18100000  0.92362000  1.0
  S2-  S2  1  0.50000000  0.68100000  0.92362000  1.0
  S2-  S3  1  0.00000000  0.15805000  0.12814000  1.0
  S2-  S3  1  0.00000000  0.65805000  0.12814000  1.0
  S2-  S3  1  0.00000000  0.15805000  0.32814000  1.0
  S2-  S3  1  0.00000000  0.65805000  0.32814000  1.0
  S2-  S3  1  0.00000000  0.15805000  0.52814000  1.0
  S2-  S3  1  0.00000000  0.65805000  0.52814000  1.0
  S2-  S3  1  0.00000000  0.15805000  0.72814000  1.0
  S2-  S3  1  0.00000000  0.65805000  0.72814000  1.0
  S2-  S3  1  0.00000000  0.15805000  0.92814000  1.0
  S2-  S3  1  0.00000000  0.65805000  0.92814000  1.0
  S2-  S3  1  0.50000000  0.34195000  0.02814000  1.0
  S2-  S3  1  0.50000000  0.84195000  0.02814000  1.0
  S2-  S3  1  0.50000000  0.34195000  0.22814000  1.0
  S2-  S3  1  0.50000000  0.84195000  0.22814000  1.0
  S2-  S3  1  0.50000000  0.34195000  0.42814000  1.0
  S2-  S3  1  0.50000000  0.84195000  0.42814000  1.0
  S2-  S3  1  0.50000000  0.34195000  0.62814000  1.0
  S2-  S3  1  0.50000000  0.84195000  0.62814000  1.0
  S2-  S3  1  0.50000000  0.34195000  0.82814000  1.0
  S2-  S3  1  0.50000000  0.84195000  0.82814000  1.0
