# generated using pymatgen
data_Li3H4IN2
_symmetry_space_group_name_H-M   'P 1'
_cell_length_a   21.27327000
_cell_length_b   11.50958000
_cell_length_c   7.09109000
_cell_angle_alpha   90.00000000
_cell_angle_beta   60.00000000
_cell_angle_gamma   90.00000000
_symmetry_Int_Tables_number   1
_chemical_formula_structural   Li3H4IN2
_chemical_formula_sum   'Li36 H48 I12 N24'
_cell_volume   1503.61745026
_cell_formula_units_Z   12
loop_
 _symmetry_equiv_pos_site_id
 _symmetry_equiv_pos_as_xyz
  1  'x, y, z'
loop_
 _atom_type_symbol
 _atom_type_oxidation_number
  Li+  1.0
  H+  1.0
  I-  -1.0
  N3-  -3.0
loop_
 _atom_site_type_symbol
 _atom_site_label
 _atom_site_symmetry_multiplicity
 _atom_site_fract_x
 _atom_site_fract_y
 _atom_site_fract_z
 _atom_site_occupancy
  Li+  Li0  1  0.29763333  0.87920000  0.64290000  1.0
  Li+  Li1  1  0.63096667  0.87920000  0.64290000  1.0
  Li+  Li2  1  0.96773188  0.88275020  0.64066450  1.0
  Li+  Li3  1  0.07140000  0.87920000  0.64290000  1.0
  Li+  Li4  1  0.40461865  0.88063251  0.64021629  1.0
  Li+  Li5  1  0.73806667  0.87920000  0.64290000  1.0
  Li+  Li6  1  0.29763333  0.87920000  0.96420000  1.0
  Li+  Li7  1  0.63096667  0.87920000  0.96420000  1.0
  Li+  Li8  1  0.96430000  0.87920000  0.96420000  1.0
  Li+  Li9  1  0.03570000  0.37920000  0.85710000  1.0
  Li+  Li10  1  0.36903333  0.37920000  0.85710000  1.0
  Li+  Li11  1  0.70236667  0.37920000  0.85710000  1.0
  Li+  Li12  1  0.26193333  0.37920000  0.85710000  1.0
  Li+  Li13  1  0.59526667  0.37920000  0.85710000  1.0
  Li+  Li14  1  0.92860000  0.37920000  0.85710000  1.0
  Li+  Li15  1  0.03570000  0.37920000  0.53580000  1.0
  Li+  Li16  1  0.36903333  0.37920000  0.53580000  1.0
  Li+  Li17  1  0.70236667  0.37920000  0.53580000  1.0
  Li+  Li18  1  0.28873333  0.67330000  0.61620000  1.0
  Li+  Li19  1  0.61769363  0.66947819  0.62074791  1.0
  Li+  Li20  1  0.95540000  0.67330000  0.61620000  1.0
  Li+  Li21  1  0.08920000  0.67330000  0.61620000  1.0
  Li+  Li22  1  0.41954935  0.67494439  0.61849106  1.0
  Li+  Li23  1  0.75586667  0.67330000  0.61620000  1.0
  Li+  Li24  1  0.28873333  0.67330000  0.01760000  1.0
  Li+  Li25  1  0.62206667  0.67330000  0.01760000  1.0
  Li+  Li26  1  0.95540000  0.67330000  0.01760000  1.0
  Li+  Li27  1  0.04460000  0.17330000  0.88380000  1.0
  Li+  Li28  1  0.37793333  0.17330000  0.88380000  1.0
  Li+  Li29  1  0.71126667  0.17330000  0.88380000  1.0
  Li+  Li30  1  0.24413333  0.17330000  0.88380000  1.0
  Li+  Li31  1  0.57746667  0.17330000  0.88380000  1.0
  Li+  Li32  1  0.91080000  0.17330000  0.88380000  1.0
  Li+  Li33  1  0.04466999  0.17101643  0.47844757  1.0
  Li+  Li34  1  0.37793333  0.17330000  0.48240000  1.0
  Li+  Li35  1  0.71126667  0.17330000  0.48240000  1.0
  H+  H36  1  0.05683333  0.67730000  0.40900000  1.0
  H+  H37  1  0.39016667  0.67730000  0.40900000  1.0
  H+  H38  1  0.72350000  0.67730000  0.40900000  1.0
  H+  H39  1  0.05683333  0.67730000  0.92050000  1.0
  H+  H40  1  0.39016667  0.67730000  0.92050000  1.0
  H+  H41  1  0.71870398  0.67513789  0.91925812  1.0
  H+  H42  1  0.21966667  0.67730000  0.92050000  1.0
  H+  H43  1  0.55300000  0.67730000  0.92050000  1.0
  H+  H44  1  0.88633333  0.67730000  0.92050000  1.0
  H+  H45  1  0.27534278  0.17998183  0.08611128  1.0
  H+  H46  1  0.60648046  0.17888271  0.08964293  1.0
  H+  H47  1  0.94316667  0.17730000  0.09100000  1.0
  H+  H48  1  0.27650000  0.17730000  0.57950000  1.0
  H+  H49  1  0.60493182  0.17877979  0.58149514  1.0
  H+  H50  1  0.94316667  0.17730000  0.57950000  1.0
  H+  H51  1  0.11366667  0.17730000  0.57950000  1.0
  H+  H52  1  0.44277779  0.17651942  0.57829828  1.0
  H+  H53  1  0.78033333  0.17730000  0.57950000  1.0
  H+  H54  1  0.03520000  0.75260000  0.53880000  1.0
  H+  H55  1  0.36853333  0.75260000  0.53880000  1.0
  H+  H56  1  0.70186667  0.75260000  0.53880000  1.0
  H+  H57  1  0.03520000  0.75260000  0.85560000  1.0
  H+  H58  1  0.36853333  0.75260000  0.85560000  1.0
  H+  H59  1  0.69715572  0.75579225  0.85528879  1.0
  H+  H60  1  0.26293333  0.75260000  0.85560000  1.0
  H+  H61  1  0.59689414  0.74977253  0.85170961  1.0
  H+  H62  1  0.93140063  0.75382065  0.85770029  1.0
  H+  H63  1  0.29813333  0.25260000  0.96120000  1.0
  H+  H64  1  0.63022973  0.25221324  0.96762549  1.0
  H+  H65  1  0.96480000  0.25260000  0.96120000  1.0
  H+  H66  1  0.29813333  0.25260000  0.64440000  1.0
  H+  H67  1  0.63146667  0.25260000  0.64440000  1.0
  H+  H68  1  0.96927890  0.25309148  0.64641936  1.0
  H+  H69  1  0.07040000  0.25260000  0.64440000  1.0
  H+  H70  1  0.40373333  0.25260000  0.64440000  1.0
  H+  H71  1  0.73706667  0.25260000  0.64440000  1.0
  H+  H72  1  0.02456667  0.97890000  0.60260000  1.0
  H+  H73  1  0.35790000  0.97890000  0.60260000  1.0
  H+  H74  1  0.69123333  0.97890000  0.60260000  1.0
  H+  H75  1  0.02555849  0.97936948  0.82257663  1.0
  H+  H76  1  0.35790000  0.97890000  0.82370000  1.0
  H+  H77  1  0.68678323  0.97957214  0.82296249  1.0
  H+  H78  1  0.30876667  0.47890000  0.89740000  1.0
  H+  H79  1  0.63930743  0.48148090  0.89806429  1.0
  H+  H80  1  0.97778939  0.47539251  0.89489738  1.0
  H+  H81  1  0.30876667  0.47890000  0.67630000  1.0
  H+  H82  1  0.63560701  0.47580647  0.67419903  1.0
  H+  H83  1  0.97543333  0.47890000  0.67630000  1.0
  I-  I84  1  0.10912029  0.42670325  0.08268424  1.0
  I-  I85  1  0.44555803  0.42944988  0.08484152  1.0
  I-  I86  1  0.77777778  0.42640000  0.08333333  1.0
  I-  I87  1  0.21690793  0.92636315  0.41629265  1.0
  I-  I88  1  0.55555556  0.92640000  0.41666667  1.0
  I-  I89  1  0.89239632  0.92413145  0.42015152  1.0
  I-  I90  1  0.11111111  0.05050000  0.08333333  1.0
  I-  I91  1  0.44444444  0.05050000  0.08333333  1.0
  I-  I92  1  0.77777778  0.05050000  0.08333333  1.0
  I-  I93  1  0.22222222  0.55050000  0.41666667  1.0
  I-  I94  1  0.55555556  0.55050000  0.41666667  1.0
  I-  I95  1  0.88816312  0.55326780  0.41709005  1.0
  N3-  N96  1  0.99973721  0.01441788  0.74884545  1.0
  N3-  N97  1  0.33333333  0.01400000  0.75000000  1.0
  N3-  N98  1  0.66666667  0.01400000  0.75000000  1.0
  N3-  N99  1  0.00000000  0.51400000  0.75000000  1.0
  N3-  N100  1  0.33342196  0.51167373  0.75018934  1.0
  N3-  N101  1  0.66666667  0.51400000  0.75000000  1.0
  N3-  N102  1  0.05916667  0.75710000  0.92750000  1.0
  N3-  N103  1  0.39250000  0.75710000  0.92750000  1.0
  N3-  N104  1  0.72583333  0.75710000  0.92750000  1.0
  N3-  N105  1  0.21500000  0.75710000  0.92750000  1.0
  N3-  N106  1  0.54833333  0.75710000  0.92750000  1.0
  N3-  N107  1  0.88556768  0.75775892  0.92462230  1.0
  N3-  N108  1  0.05916667  0.75710000  0.39500000  1.0
  N3-  N109  1  0.39250000  0.75710000  0.39500000  1.0
  N3-  N110  1  0.72583333  0.75710000  0.39500000  1.0
  N3-  N111  1  0.27416667  0.25710000  0.57250000  1.0
  N3-  N112  1  0.60865303  0.26119652  0.57403183  1.0
  N3-  N113  1  0.94083333  0.25710000  0.57250000  1.0
  N3-  N114  1  0.11833333  0.25710000  0.57250000  1.0
  N3-  N115  1  0.45166667  0.25710000  0.57250000  1.0
  N3-  N116  1  0.78500000  0.25710000  0.57250000  1.0
  N3-  N117  1  0.27416667  0.25710000  0.10500000  1.0
  N3-  N118  1  0.60750000  0.25710000  0.10500000  1.0
  N3-  N119  1  0.94219773  0.25744346  0.10344666  1.0
