# generated using pymatgen
data_Li3H4IN2
_symmetry_space_group_name_H-M   'P 1'
_cell_length_a   7.06485712
_cell_length_b   21.19457136
_cell_length_c   11.46700130
_cell_angle_alpha   90.00000000
_cell_angle_beta   90.00000000
_cell_angle_gamma   120.00000000
_symmetry_Int_Tables_number   1
_chemical_formula_structural   Li3H4IN2
_chemical_formula_sum   'Li36 H48 I12 N24'
_cell_volume   1486.99159698
_cell_formula_units_Z   12
loop_
 _symmetry_equiv_pos_site_id
 _symmetry_equiv_pos_as_xyz
  1  'x, y, z'
loop_
 _atom_type_symbol
 _atom_type_oxidation_number
  Li+  1.0
  H+  1.0
  I-  -1.0
  N3-  -3.0
loop_
 _atom_site_type_symbol
 _atom_site_label
 _atom_site_symmetry_multiplicity
 _atom_site_fract_x
 _atom_site_fract_y
 _atom_site_fract_z
 _atom_site_occupancy
  Li+  Li0  1  0.89290000  0.36903333  0.12080000  1.0
  Li+  Li1  1  0.89290000  0.03570000  0.12080000  1.0
  Li+  Li2  1  0.89290000  0.70236667  0.12080000  1.0
  Li+  Li3  1  0.89290000  0.59526667  0.12080000  1.0
  Li+  Li4  1  0.89290000  0.26193333  0.12080000  1.0
  Li+  Li5  1  0.89290000  0.92860000  0.12080000  1.0
  Li+  Li6  1  0.21420000  0.36903333  0.12080000  1.0
  Li+  Li7  1  0.21420000  0.03570000  0.12080000  1.0
  Li+  Li8  1  0.21420000  0.70236667  0.12080000  1.0
  Li+  Li9  1  0.10710000  0.63096667  0.62080000  1.0
  Li+  Li10  1  0.10710000  0.29763333  0.62080000  1.0
  Li+  Li11  1  0.10710000  0.96430000  0.62080000  1.0
  Li+  Li12  1  0.10710000  0.40473333  0.62080000  1.0
  Li+  Li13  1  0.10710000  0.07140000  0.62080000  1.0
  Li+  Li14  1  0.10710000  0.73806667  0.62080000  1.0
  Li+  Li15  1  0.78580000  0.63096667  0.62080000  1.0
  Li+  Li16  1  0.78580000  0.29763333  0.62080000  1.0
  Li+  Li17  1  0.78580000  0.96430000  0.62080000  1.0
  Li+  Li18  1  0.86620000  0.37793333  0.32670000  1.0
  Li+  Li19  1  0.86620000  0.04460000  0.32670000  1.0
  Li+  Li20  1  0.86620000  0.71126667  0.32670000  1.0
  Li+  Li21  1  0.86620000  0.57746667  0.32670000  1.0
  Li+  Li22  1  0.86620000  0.24413333  0.32670000  1.0
  Li+  Li23  1  0.86620000  0.91080000  0.32670000  1.0
  Li+  Li24  1  0.26760000  0.37793333  0.32670000  1.0
  Li+  Li25  1  0.26760000  0.04460000  0.32670000  1.0
  Li+  Li26  1  0.26760000  0.71126667  0.32670000  1.0
  Li+  Li27  1  0.13380000  0.62206667  0.82670000  1.0
  Li+  Li28  1  0.13380000  0.28873333  0.82670000  1.0
  Li+  Li29  1  0.13380000  0.95540000  0.82670000  1.0
  Li+  Li30  1  0.13380000  0.42253333  0.82670000  1.0
  Li+  Li31  1  0.13380000  0.08920000  0.82670000  1.0
  Li+  Li32  1  0.13380000  0.75586667  0.82670000  1.0
  Li+  Li33  1  0.73240000  0.62206667  0.82670000  1.0
  Li+  Li34  1  0.73240000  0.28873333  0.82670000  1.0
  Li+  Li35  1  0.73240000  0.95540000  0.82670000  1.0
  H+  H36  1  0.65900000  0.60983333  0.32270000  1.0
  H+  H37  1  0.65900000  0.27650000  0.32270000  1.0
  H+  H38  1  0.65900000  0.94316667  0.32270000  1.0
  H+  H39  1  0.17050000  0.60983333  0.32270000  1.0
  H+  H40  1  0.17050000  0.27650000  0.32270000  1.0
  H+  H41  1  0.17050000  0.94316667  0.32270000  1.0
  H+  H42  1  0.17050000  0.44700000  0.32270000  1.0
  H+  H43  1  0.17050000  0.11366667  0.32270000  1.0
  H+  H44  1  0.17050000  0.78033333  0.32270000  1.0
  H+  H45  1  0.34100000  0.39016667  0.82270000  1.0
  H+  H46  1  0.34100000  0.05683333  0.82270000  1.0
  H+  H47  1  0.34100000  0.72350000  0.82270000  1.0
  H+  H48  1  0.82950000  0.39016667  0.82270000  1.0
  H+  H49  1  0.82950000  0.05683333  0.82270000  1.0
  H+  H50  1  0.82950000  0.72350000  0.82270000  1.0
  H+  H51  1  0.82950000  0.55300000  0.82270000  1.0
  H+  H52  1  0.82950000  0.21966667  0.82270000  1.0
  H+  H53  1  0.82950000  0.88633333  0.82270000  1.0
  H+  H54  1  0.78880000  0.63146667  0.24740000  1.0
  H+  H55  1  0.78880000  0.29813333  0.24740000  1.0
  H+  H56  1  0.78880000  0.96480000  0.24740000  1.0
  H+  H57  1  0.10560000  0.63146667  0.24740000  1.0
  H+  H58  1  0.10560000  0.29813333  0.24740000  1.0
  H+  H59  1  0.10560000  0.96480000  0.24740000  1.0
  H+  H60  1  0.10560000  0.40373333  0.24740000  1.0
  H+  H61  1  0.10560000  0.07040000  0.24740000  1.0
  H+  H62  1  0.10560000  0.73706667  0.24740000  1.0
  H+  H63  1  0.21120000  0.36853333  0.74740000  1.0
  H+  H64  1  0.21120000  0.03520000  0.74740000  1.0
  H+  H65  1  0.21120000  0.70186667  0.74740000  1.0
  H+  H66  1  0.89440000  0.36853333  0.74740000  1.0
  H+  H67  1  0.89440000  0.03520000  0.74740000  1.0
  H+  H68  1  0.89440000  0.70186667  0.74740000  1.0
  H+  H69  1  0.89440000  0.59626667  0.74740000  1.0
  H+  H70  1  0.89440000  0.26293333  0.74740000  1.0
  H+  H71  1  0.89440000  0.92960000  0.74740000  1.0
  H+  H72  1  0.85260000  0.64210000  0.02110000  1.0
  H+  H73  1  0.85260000  0.30876667  0.02110000  1.0
  H+  H74  1  0.85260000  0.97543333  0.02110000  1.0
  H+  H75  1  0.07370000  0.64210000  0.02110000  1.0
  H+  H76  1  0.07370000  0.30876667  0.02110000  1.0
  H+  H77  1  0.07370000  0.97543333  0.02110000  1.0
  H+  H78  1  0.14740000  0.35790000  0.52110000  1.0
  H+  H79  1  0.14740000  0.02456667  0.52110000  1.0
  H+  H80  1  0.14740000  0.69123333  0.52110000  1.0
  H+  H81  1  0.92630000  0.35790000  0.52110000  1.0
  H+  H82  1  0.92630000  0.02456667  0.52110000  1.0
  H+  H83  1  0.92630000  0.69123333  0.52110000  1.0
  I-  I84  1  0.33333333  0.55555556  0.57360000  1.0
  I-  I85  1  0.33333333  0.22222222  0.57360000  1.0
  I-  I86  1  0.33333333  0.88888889  0.57360000  1.0
  I-  I87  1  0.66666667  0.44444444  0.07360000  1.0
  I-  I88  1  0.66666667  0.11111111  0.07360000  1.0
  I-  I89  1  0.66666667  0.77777778  0.07360000  1.0
  I-  I90  1  0.33333333  0.55555556  0.94950000  1.0
  I-  I91  1  0.33333333  0.22222222  0.94950000  1.0
  I-  I92  1  0.33333333  0.88888889  0.94950000  1.0
  I-  I93  1  0.66666667  0.44444444  0.44950000  1.0
  I-  I94  1  0.66666667  0.11111111  0.44950000  1.0
  I-  I95  1  0.66666667  0.77777778  0.44950000  1.0
  N3-  N96  1  0.00000000  0.66666667  0.98600000  1.0
  N3-  N97  1  0.00000000  0.33333333  0.98600000  1.0
  N3-  N98  1  0.00000000  0.00000000  0.98600000  1.0
  N3-  N99  1  0.00000000  0.66666667  0.48600000  1.0
  N3-  N100  1  0.00000000  0.33333333  0.48600000  1.0
  N3-  N101  1  0.00000000  0.00000000  0.48600000  1.0
  N3-  N102  1  0.17750000  0.60750000  0.24290000  1.0
  N3-  N103  1  0.17750000  0.27416667  0.24290000  1.0
  N3-  N104  1  0.17750000  0.94083333  0.24290000  1.0
  N3-  N105  1  0.17750000  0.45166667  0.24290000  1.0
  N3-  N106  1  0.17750000  0.11833333  0.24290000  1.0
  N3-  N107  1  0.17750000  0.78500000  0.24290000  1.0
  N3-  N108  1  0.64500000  0.60750000  0.24290000  1.0
  N3-  N109  1  0.64500000  0.27416667  0.24290000  1.0
  N3-  N110  1  0.64500000  0.94083333  0.24290000  1.0
  N3-  N111  1  0.82250000  0.39250000  0.74290000  1.0
  N3-  N112  1  0.82250000  0.05916667  0.74290000  1.0
  N3-  N113  1  0.82250000  0.72583333  0.74290000  1.0
  N3-  N114  1  0.82250000  0.54833333  0.74290000  1.0
  N3-  N115  1  0.82250000  0.21500000  0.74290000  1.0
  N3-  N116  1  0.82250000  0.88166667  0.74290000  1.0
  N3-  N117  1  0.35500000  0.39250000  0.74290000  1.0
  N3-  N118  1  0.35500000  0.05916667  0.74290000  1.0
  N3-  N119  1  0.35500000  0.72583333  0.74290000  1.0
