# generated using pymatgen
data_Li3H4IN2
_symmetry_space_group_name_H-M   'P 1'
_cell_length_a   21.27327000
_cell_length_b   7.09109000
_cell_length_c   11.50958000
_cell_angle_alpha   90.00000000
_cell_angle_beta   90.00000000
_cell_angle_gamma   120.00000000
_symmetry_Int_Tables_number   1
_chemical_formula_structural   Li3H4IN2
_chemical_formula_sum   'Li36 H48 I12 N24'
_cell_volume   1503.61745026
_cell_formula_units_Z   12
loop_
 _symmetry_equiv_pos_site_id
 _symmetry_equiv_pos_as_xyz
  1  'x, y, z'
loop_
 _atom_type_symbol
 _atom_type_oxidation_number
  Li+  1.0
  H+  1.0
  I-  -1.0
  N3-  -3.0
loop_
 _atom_site_type_symbol
 _atom_site_label
 _atom_site_symmetry_multiplicity
 _atom_site_fract_x
 _atom_site_fract_y
 _atom_site_fract_z
 _atom_site_occupancy
  Li+  Li1  1  0.29763333  0.10710000  0.12080000  1.0
  Li+  Li1  1  0.63096667  0.10710000  0.12080000  1.0
  Li+  Li1  1  0.96430000  0.10710000  0.12080000  1.0
  Li+  Li1  1  0.07140000  0.10710000  0.12080000  1.0
  Li+  Li1  1  0.40473333  0.10710000  0.12080000  1.0
  Li+  Li1  1  0.73806667  0.10710000  0.12080000  1.0
  Li+  Li1  1  0.29763333  0.78580000  0.12080000  1.0
  Li+  Li1  1  0.63096667  0.78580000  0.12080000  1.0
  Li+  Li1  1  0.96430000  0.78580000  0.12080000  1.0
  Li+  Li1  1  0.03570000  0.89290000  0.62080000  1.0
  Li+  Li1  1  0.36903333  0.89290000  0.62080000  1.0
  Li+  Li1  1  0.70236667  0.89290000  0.62080000  1.0
  Li+  Li1  1  0.26193333  0.89290000  0.62080000  1.0
  Li+  Li1  1  0.59526667  0.89290000  0.62080000  1.0
  Li+  Li1  1  0.92860000  0.89290000  0.62080000  1.0
  Li+  Li1  1  0.03570000  0.21420000  0.62080000  1.0
  Li+  Li1  1  0.36903333  0.21420000  0.62080000  1.0
  Li+  Li1  1  0.70236667  0.21420000  0.62080000  1.0
  Li+  Li2  1  0.28873333  0.13380000  0.32670000  1.0
  Li+  Li2  1  0.62206667  0.13380000  0.32670000  1.0
  Li+  Li2  1  0.95540000  0.13380000  0.32670000  1.0
  Li+  Li2  1  0.08920000  0.13380000  0.32670000  1.0
  Li+  Li2  1  0.42253333  0.13380000  0.32670000  1.0
  Li+  Li2  1  0.75586667  0.13380000  0.32670000  1.0
  Li+  Li2  1  0.28873333  0.73240000  0.32670000  1.0
  Li+  Li2  1  0.62206667  0.73240000  0.32670000  1.0
  Li+  Li2  1  0.95540000  0.73240000  0.32670000  1.0
  Li+  Li2  1  0.04460000  0.86620000  0.82670000  1.0
  Li+  Li2  1  0.37793333  0.86620000  0.82670000  1.0
  Li+  Li2  1  0.71126667  0.86620000  0.82670000  1.0
  Li+  Li2  1  0.24413333  0.86620000  0.82670000  1.0
  Li+  Li2  1  0.57746667  0.86620000  0.82670000  1.0
  Li+  Li2  1  0.91080000  0.86620000  0.82670000  1.0
  Li+  Li2  1  0.04460000  0.26760000  0.82670000  1.0
  Li+  Li2  1  0.37793333  0.26760000  0.82670000  1.0
  Li+  Li2  1  0.71126667  0.26760000  0.82670000  1.0
  H+  H2  1  0.05683333  0.34100000  0.32270000  1.0
  H+  H2  1  0.39016667  0.34100000  0.32270000  1.0
  H+  H2  1  0.72350000  0.34100000  0.32270000  1.0
  H+  H2  1  0.05683333  0.82950000  0.32270000  1.0
  H+  H2  1  0.39016667  0.82950000  0.32270000  1.0
  H+  H2  1  0.72350000  0.82950000  0.32270000  1.0
  H+  H2  1  0.21966667  0.82950000  0.32270000  1.0
  H+  H2  1  0.55300000  0.82950000  0.32270000  1.0
  H+  H2  1  0.88633333  0.82950000  0.32270000  1.0
  H+  H2  1  0.27650000  0.65900000  0.82270000  1.0
  H+  H2  1  0.60983333  0.65900000  0.82270000  1.0
  H+  H2  1  0.94316667  0.65900000  0.82270000  1.0
  H+  H2  1  0.27650000  0.17050000  0.82270000  1.0
  H+  H2  1  0.60983333  0.17050000  0.82270000  1.0
  H+  H2  1  0.94316667  0.17050000  0.82270000  1.0
  H+  H2  1  0.11366667  0.17050000  0.82270000  1.0
  H+  H2  1  0.44700000  0.17050000  0.82270000  1.0
  H+  H2  1  0.78033333  0.17050000  0.82270000  1.0
  H+  H3  1  0.03520000  0.21120000  0.24740000  1.0
  H+  H3  1  0.36853333  0.21120000  0.24740000  1.0
  H+  H3  1  0.70186667  0.21120000  0.24740000  1.0
  H+  H3  1  0.03520000  0.89440000  0.24740000  1.0
  H+  H3  1  0.36853333  0.89440000  0.24740000  1.0
  H+  H3  1  0.70186667  0.89440000  0.24740000  1.0
  H+  H3  1  0.26293333  0.89440000  0.24740000  1.0
  H+  H3  1  0.59626667  0.89440000  0.24740000  1.0
  H+  H3  1  0.92960000  0.89440000  0.24740000  1.0
  H+  H3  1  0.29813333  0.78880000  0.74740000  1.0
  H+  H3  1  0.63146667  0.78880000  0.74740000  1.0
  H+  H3  1  0.96480000  0.78880000  0.74740000  1.0
  H+  H3  1  0.29813333  0.10560000  0.74740000  1.0
  H+  H3  1  0.63146667  0.10560000  0.74740000  1.0
  H+  H3  1  0.96480000  0.10560000  0.74740000  1.0
  H+  H3  1  0.07040000  0.10560000  0.74740000  1.0
  H+  H3  1  0.40373333  0.10560000  0.74740000  1.0
  H+  H3  1  0.73706667  0.10560000  0.74740000  1.0
  H+  H24  1  0.02456667  0.14740000  0.02110000  1.0
  H+  H24  1  0.35790000  0.14740000  0.02110000  1.0
  H+  H24  1  0.69123333  0.14740000  0.02110000  1.0
  H+  H25  1  0.02456667  0.92630000  0.02110000  1.0
  H+  H25  1  0.35790000  0.92630000  0.02110000  1.0
  H+  H25  1  0.69123333  0.92630000  0.02110000  1.0
  H+  H26  1  0.30876667  0.85260000  0.52110000  1.0
  H+  H26  1  0.64210000  0.85260000  0.52110000  1.0
  H+  H26  1  0.97543333  0.85260000  0.52110000  1.0
  H+  H27  1  0.30876667  0.07370000  0.52110000  1.0
  H+  H27  1  0.64210000  0.07370000  0.52110000  1.0
  H+  H27  1  0.97543333  0.07370000  0.52110000  1.0
  I-  I28  1  0.11111111  0.66666667  0.57360000  1.0
  I-  I28  1  0.44444444  0.66666667  0.57360000  1.0
  I-  I28  1  0.77777778  0.66666667  0.57360000  1.0
  I-  I29  1  0.22222222  0.33333333  0.07360000  1.0
  I-  I29  1  0.55555556  0.33333333  0.07360000  1.0
  I-  I29  1  0.88888889  0.33333333  0.07360000  1.0
  I-  I30  1  0.11111111  0.66666667  0.94950000  1.0
  I-  I30  1  0.44444444  0.66666667  0.94950000  1.0
  I-  I30  1  0.77777778  0.66666667  0.94950000  1.0
  I-  I31  1  0.22222222  0.33333333  0.44950000  1.0
  I-  I31  1  0.55555556  0.33333333  0.44950000  1.0
  I-  I31  1  0.88888889  0.33333333  0.44950000  1.0
  N3-  N1  1  0.00000000  0.00000000  0.98600000  1.0
  N3-  N1  1  0.33333333  0.00000000  0.98600000  1.0
  N3-  N1  1  0.66666667  0.00000000  0.98600000  1.0
  N3-  N1  1  0.00000000  0.00000000  0.48600000  1.0
  N3-  N1  1  0.33333333  0.00000000  0.48600000  1.0
  N3-  N1  1  0.66666667  0.00000000  0.48600000  1.0
  N3-  N2  1  0.05916667  0.82250000  0.24290000  1.0
  N3-  N2  1  0.39250000  0.82250000  0.24290000  1.0
  N3-  N2  1  0.72583333  0.82250000  0.24290000  1.0
  N3-  N2  1  0.21500000  0.82250000  0.24290000  1.0
  N3-  N2  1  0.54833333  0.82250000  0.24290000  1.0
  N3-  N2  1  0.88166667  0.82250000  0.24290000  1.0
  N3-  N2  1  0.05916667  0.35500000  0.24290000  1.0
  N3-  N2  1  0.39250000  0.35500000  0.24290000  1.0
  N3-  N2  1  0.72583333  0.35500000  0.24290000  1.0
  N3-  N2  1  0.27416667  0.17750000  0.74290000  1.0
  N3-  N2  1  0.60750000  0.17750000  0.74290000  1.0
  N3-  N2  1  0.94083333  0.17750000  0.74290000  1.0
  N3-  N2  1  0.11833333  0.17750000  0.74290000  1.0
  N3-  N2  1  0.45166667  0.17750000  0.74290000  1.0
  N3-  N2  1  0.78500000  0.17750000  0.74290000  1.0
  N3-  N2  1  0.27416667  0.64500000  0.74290000  1.0
  N3-  N2  1  0.60750000  0.64500000  0.74290000  1.0
  N3-  N2  1  0.94083333  0.64500000  0.74290000  1.0
