# generated using pymatgen
data_Li61SnSb19S80
_symmetry_space_group_name_H-M   'P 1'
_cell_length_a   7.96667000
_cell_length_b   31.88060000
_cell_length_c   13.70888000
_cell_angle_alpha   90.00000000
_cell_angle_beta   90.00000000
_cell_angle_gamma   90.00000000
_symmetry_Int_Tables_number   1
_chemical_formula_structural   Li61SnSb19S80
_chemical_formula_sum   'Li61 Sn1 Sb19 S80'
_cell_volume   3481.81177066
_cell_formula_units_Z   1
loop_
 _symmetry_equiv_pos_site_id
 _symmetry_equiv_pos_as_xyz
  1  'x, y, z'
loop_
 _atom_type_symbol
 _atom_type_oxidation_number
  Li+  1.0
  Sn4+  4.0
  Sb5+  5.0
  S2-  -2.0
loop_
 _atom_site_type_symbol
 _atom_site_label
 _atom_site_symmetry_multiplicity
 _atom_site_fract_x
 _atom_site_fract_y
 _atom_site_fract_z
 _atom_site_occupancy
  Li+  Li0  1  0.25190166  0.89818152  0.66463078  1.0
  Li+  Li1  1  0.25450000  0.69888000  0.66300000  1.0
  Li+  Li2  1  0.25450000  0.49888000  0.66300000  1.0
  Li+  Li3  1  0.25450000  0.29888000  0.66300000  1.0
  Li+  Li4  1  0.25701492  0.09813660  0.66314004  1.0
  Li+  Li5  1  0.25450000  0.89888000  0.16300000  1.0
  Li+  Li6  1  0.25450000  0.69888000  0.16300000  1.0
  Li+  Li7  1  0.25450000  0.49888000  0.16300000  1.0
  Li+  Li8  1  0.25450000  0.29888000  0.16300000  1.0
  Li+  Li9  1  0.25323195  0.10173151  0.15923850  1.0
  Li+  Li10  1  0.24550000  0.99888000  0.33700000  1.0
  Li+  Li11  1  0.24550000  0.79888000  0.33700000  1.0
  Li+  Li12  1  0.24550000  0.59888000  0.33700000  1.0
  Li+  Li13  1  0.24550000  0.39888000  0.33700000  1.0
  Li+  Li14  1  0.24550000  0.19888000  0.33700000  1.0
  Li+  Li15  1  0.24550000  0.99888000  0.83700000  1.0
  Li+  Li16  1  0.24550000  0.79888000  0.83700000  1.0
  Li+  Li17  1  0.24550000  0.59888000  0.83700000  1.0
  Li+  Li18  1  0.24550000  0.39888000  0.83700000  1.0
  Li+  Li19  1  0.24550000  0.19888000  0.83700000  1.0
  Li+  Li20  1  0.75379850  0.00252781  0.33917456  1.0
  Li+  Li21  1  0.75450000  0.79888000  0.33700000  1.0
  Li+  Li22  1  0.75540676  0.59652782  0.33526602  1.0
  Li+  Li23  1  0.75450000  0.39888000  0.33700000  1.0
  Li+  Li24  1  0.75062044  0.19557345  0.33570188  1.0
  Li+  Li25  1  0.75450000  0.99888000  0.83700000  1.0
  Li+  Li26  1  0.75450000  0.79888000  0.83700000  1.0
  Li+  Li27  1  0.75772211  0.60032053  0.83859305  1.0
  Li+  Li28  1  0.75450000  0.39888000  0.83700000  1.0
  Li+  Li29  1  0.75372899  0.19852962  0.83807445  1.0
  Li+  Li30  1  0.74550000  0.89888000  0.66300000  1.0
  Li+  Li31  1  0.74550000  0.69888000  0.66300000  1.0
  Li+  Li32  1  0.74550000  0.49888000  0.66300000  1.0
  Li+  Li33  1  0.74550000  0.29888000  0.66300000  1.0
  Li+  Li34  1  0.74672823  0.10117869  0.66439141  1.0
  Li+  Li35  1  0.74550000  0.89888000  0.16300000  1.0
  Li+  Li36  1  0.74335727  0.69767038  0.16381065  1.0
  Li+  Li37  1  0.74550000  0.49888000  0.16300000  1.0
  Li+  Li38  1  0.74369518  0.30081885  0.16314608  1.0
  Li+  Li39  1  0.74550000  0.09888000  0.16300000  1.0
  Li+  Li40  1  0.00000000  0.89780000  0.42270000  1.0
  Li+  Li41  1  0.00000000  0.69780000  0.42270000  1.0
  Li+  Li42  1  0.00000000  0.49780000  0.42270000  1.0
  Li+  Li43  1  0.00000000  0.29780000  0.42270000  1.0
  Li+  Li44  1  0.00000000  0.09780000  0.42270000  1.0
  Li+  Li45  1  0.00000000  0.89780000  0.92270000  1.0
  Li+  Li46  1  0.00000000  0.69780000  0.92270000  1.0
  Li+  Li47  1  0.99748628  0.50049925  0.91753616  1.0
  Li+  Li48  1  0.00089622  0.30017068  0.92009067  1.0
  Li+  Li49  1  0.00000000  0.09780000  0.92270000  1.0
  Li+  Li50  1  0.50000000  0.99780000  0.57730000  1.0
  Li+  Li51  1  0.50000000  0.79780000  0.57730000  1.0
  Li+  Li52  1  0.50374522  0.59915166  0.57336353  1.0
  Li+  Li53  1  0.50000000  0.39780000  0.57730000  1.0
  Li+  Li54  1  0.50000000  0.19780000  0.57730000  1.0
  Li+  Li55  1  0.50000000  0.99780000  0.07730000  1.0
  Li+  Li56  1  0.50491979  0.79531211  0.08096432  1.0
  Li+  Li57  1  0.50000000  0.59780000  0.07730000  1.0
  Li+  Li58  1  0.50000000  0.39780000  0.07730000  1.0
  Li+  Li59  1  0.50000000  0.19780000  0.07730000  1.0
  Li+  Li60  1  0.50000000  0.04020000  0.26050000  1.0
  Sn4+  Sn61  1  0.49668942  0.09942550  0.40975381  1.0
  Sb5+  Sb62  1  0.00000000  0.00000000  0.58668000  1.0
  Sb5+  Sb63  1  0.00000000  0.80000000  0.58668000  1.0
  Sb5+  Sb64  1  0.00000000  0.60000000  0.58668000  1.0
  Sb5+  Sb65  1  0.99660218  0.40040851  0.58706244  1.0
  Sb5+  Sb66  1  0.00000000  0.20000000  0.58668000  1.0
  Sb5+  Sb67  1  0.00000000  0.00000000  0.08668000  1.0
  Sb5+  Sb68  1  0.00000000  0.80000000  0.08668000  1.0
  Sb5+  Sb69  1  0.99316612  0.59798463  0.08658163  1.0
  Sb5+  Sb70  1  0.00000000  0.40000000  0.08668000  1.0
  Sb5+  Sb71  1  0.99926731  0.19934188  0.09006707  1.0
  Sb5+  Sb72  1  0.50000000  0.90000000  0.41332000  1.0
  Sb5+  Sb73  1  0.50000000  0.70000000  0.41332000  1.0
  Sb5+  Sb74  1  0.49557902  0.49624364  0.40890677  1.0
  Sb5+  Sb75  1  0.49923380  0.30095921  0.41330802  1.0
  Sb5+  Sb76  1  0.50000000  0.90000000  0.91332000  1.0
  Sb5+  Sb77  1  0.50000000  0.70000000  0.91332000  1.0
  Sb5+  Sb78  1  0.50000000  0.50000000  0.91332000  1.0
  Sb5+  Sb79  1  0.50000000  0.30000000  0.91332000  1.0
  Sb5+  Sb80  1  0.49646200  0.09919432  0.91646952  1.0
  S2-  S81  1  0.23980000  0.97598200  0.66700000  1.0
  S2-  S82  1  0.23980000  0.77598200  0.66700000  1.0
  S2-  S83  1  0.23980000  0.57598200  0.66700000  1.0
  S2-  S84  1  0.23980000  0.37598200  0.66700000  1.0
  S2-  S85  1  0.23980000  0.17598200  0.66700000  1.0
  S2-  S86  1  0.23980000  0.97598200  0.16700000  1.0
  S2-  S87  1  0.23980000  0.77598200  0.16700000  1.0
  S2-  S88  1  0.23797958  0.57107155  0.16894612  1.0
  S2-  S89  1  0.23980000  0.37598200  0.16700000  1.0
  S2-  S90  1  0.23980000  0.17598200  0.16700000  1.0
  S2-  S91  1  0.26020000  0.87598200  0.33300000  1.0
  S2-  S92  1  0.26020000  0.67598200  0.33300000  1.0
  S2-  S93  1  0.26020000  0.47598200  0.33300000  1.0
  S2-  S94  1  0.26020000  0.27598200  0.33300000  1.0
  S2-  S95  1  0.25691033  0.07743870  0.33259693  1.0
  S2-  S96  1  0.26017521  0.87669530  0.83220329  1.0
  S2-  S97  1  0.26020000  0.67598200  0.83300000  1.0
  S2-  S98  1  0.26020000  0.47598200  0.83300000  1.0
  S2-  S99  1  0.26020000  0.27598200  0.83300000  1.0
  S2-  S100  1  0.26149039  0.07468231  0.83257558  1.0
  S2-  S101  1  0.73980000  0.87598200  0.33300000  1.0
  S2-  S102  1  0.74024432  0.67521118  0.33716764  1.0
  S2-  S103  1  0.73980000  0.47598200  0.33300000  1.0
  S2-  S104  1  0.73980000  0.27598200  0.33300000  1.0
  S2-  S105  1  0.73980000  0.07598200  0.33300000  1.0
  S2-  S106  1  0.73980000  0.87598200  0.83300000  1.0
  S2-  S107  1  0.74168255  0.67786713  0.83356122  1.0
  S2-  S108  1  0.73980000  0.47598200  0.83300000  1.0
  S2-  S109  1  0.73980000  0.27598200  0.83300000  1.0
  S2-  S110  1  0.73980000  0.07598200  0.83300000  1.0
  S2-  S111  1  0.76020000  0.97598200  0.66700000  1.0
  S2-  S112  1  0.75987887  0.77323018  0.66952411  1.0
  S2-  S113  1  0.76020000  0.57598200  0.66700000  1.0
  S2-  S114  1  0.76201981  0.37158232  0.66566133  1.0
  S2-  S115  1  0.76020000  0.17598200  0.66700000  1.0
  S2-  S116  1  0.76020000  0.97598200  0.16700000  1.0
  S2-  S117  1  0.76020000  0.77598200  0.16700000  1.0
  S2-  S118  1  0.76020000  0.57598200  0.16700000  1.0
  S2-  S119  1  0.76020000  0.37598200  0.16700000  1.0
  S2-  S120  1  0.76750474  0.17724836  0.16817077  1.0
  S2-  S121  1  0.00000000  0.97552000  0.42650000  1.0
  S2-  S122  1  0.00247258  0.77775588  0.42325840  1.0
  S2-  S123  1  0.00000000  0.57552000  0.42650000  1.0
  S2-  S124  1  0.00228108  0.37600046  0.42534759  1.0
  S2-  S125  1  0.00088862  0.16910331  0.42449818  1.0
  S2-  S126  1  0.00000000  0.97552000  0.92650000  1.0
  S2-  S127  1  0.00000000  0.77552000  0.92650000  1.0
  S2-  S128  1  0.00000000  0.57552000  0.92650000  1.0
  S2-  S129  1  0.00000000  0.37552000  0.92650000  1.0
  S2-  S130  1  0.00000000  0.17552000  0.92650000  1.0
  S2-  S131  1  0.50000000  0.87552000  0.57350000  1.0
  S2-  S132  1  0.50001767  0.68161152  0.57257378  1.0
  S2-  S133  1  0.50322343  0.47784083  0.57231377  1.0
  S2-  S134  1  0.50000000  0.27552000  0.57350000  1.0
  S2-  S135  1  0.50000000  0.07552000  0.57350000  1.0
  S2-  S136  1  0.50000000  0.87552000  0.07350000  1.0
  S2-  S137  1  0.50508059  0.67602406  0.07138716  1.0
  S2-  S138  1  0.50000000  0.47552000  0.07350000  1.0
  S2-  S139  1  0.50000000  0.27552000  0.07350000  1.0
  S2-  S140  1  0.50000000  0.07552000  0.07350000  1.0
  S2-  S141  1  0.00000000  0.87306000  0.59050000  1.0
  S2-  S142  1  0.00000000  0.67306000  0.59050000  1.0
  S2-  S143  1  0.00000000  0.47306000  0.59050000  1.0
  S2-  S144  1  0.00124491  0.27177711  0.59330521  1.0
  S2-  S145  1  0.00000000  0.07306000  0.59050000  1.0
  S2-  S146  1  0.00000000  0.87306000  0.09050000  1.0
  S2-  S147  1  0.00000000  0.67306000  0.09050000  1.0
  S2-  S148  1  0.00000000  0.47306000  0.09050000  1.0
  S2-  S149  1  0.00000000  0.27306000  0.09050000  1.0
  S2-  S150  1  0.00000000  0.07306000  0.09050000  1.0
  S2-  S151  1  0.50000000  0.97306000  0.40950000  1.0
  S2-  S152  1  0.50000000  0.77306000  0.40950000  1.0
  S2-  S153  1  0.49931676  0.57061064  0.41183487  1.0
  S2-  S154  1  0.50000000  0.37306000  0.40950000  1.0
  S2-  S155  1  0.49971438  0.16868421  0.40901907  1.0
  S2-  S156  1  0.50000000  0.97306000  0.90950000  1.0
  S2-  S157  1  0.50000000  0.77306000  0.90950000  1.0
  S2-  S158  1  0.50000000  0.57306000  0.90950000  1.0
  S2-  S159  1  0.50000000  0.37306000  0.90950000  1.0
  S2-  S160  1  0.50000000  0.17306000  0.90950000  1.0
