# generated using pymatgen
data_Li61SnSb19S80
_symmetry_space_group_name_H-M   'P 1'
_cell_length_a   13.72956194
_cell_length_b   7.97868894
_cell_length_c   31.92869676
_cell_angle_alpha   90.00000000
_cell_angle_beta   90.00000000
_cell_angle_gamma   90.00000000
_symmetry_Int_Tables_number   1
_chemical_formula_structural   Li61SnSb19S80
_chemical_formula_sum   'Li61 Sn1 Sb19 S80'
_cell_volume   3497.59409278
_cell_formula_units_Z   1
loop_
 _symmetry_equiv_pos_site_id
 _symmetry_equiv_pos_as_xyz
  1  'x, y, z'
loop_
 _atom_type_symbol
 _atom_type_oxidation_number
  Li+  1.0
  Sn4+  4.0
  Sb5+  5.0
  S2-  -2.0
loop_
 _atom_site_type_symbol
 _atom_site_label
 _atom_site_symmetry_multiplicity
 _atom_site_fract_x
 _atom_site_fract_y
 _atom_site_fract_z
 _atom_site_occupancy
  Li+  Li0  1  0.91300000  0.41216667  0.10112000  1.0
  Li+  Li1  1  0.91300000  0.41216667  0.30112000  1.0
  Li+  Li2  1  0.91300000  0.41216667  0.50112000  1.0
  Li+  Li3  1  0.91300000  0.41216667  0.70112000  1.0
  Li+  Li4  1  0.91300000  0.41216667  0.90112000  1.0
  Li+  Li5  1  0.41300000  0.41216667  0.10112000  1.0
  Li+  Li6  1  0.41300000  0.41216667  0.30112000  1.0
  Li+  Li7  1  0.41300000  0.41216667  0.50112000  1.0
  Li+  Li8  1  0.41300000  0.41216667  0.70112000  1.0
  Li+  Li9  1  0.41300000  0.41216667  0.90112000  1.0
  Li+  Li10  1  0.58700000  0.42116667  0.00112000  1.0
  Li+  Li11  1  0.58700000  0.42116667  0.20112000  1.0
  Li+  Li12  1  0.58700000  0.42116667  0.40112000  1.0
  Li+  Li13  1  0.58700000  0.42116667  0.60112000  1.0
  Li+  Li14  1  0.58700000  0.42116667  0.80112000  1.0
  Li+  Li15  1  0.08700000  0.42116667  0.00112000  1.0
  Li+  Li16  1  0.08700000  0.42116667  0.20112000  1.0
  Li+  Li17  1  0.08700000  0.42116667  0.40112000  1.0
  Li+  Li18  1  0.08700000  0.42116667  0.60112000  1.0
  Li+  Li19  1  0.08700000  0.42116667  0.80112000  1.0
  Li+  Li20  1  0.58700000  0.91216667  0.00112000  1.0
  Li+  Li21  1  0.58700000  0.91216667  0.20112000  1.0
  Li+  Li22  1  0.58700000  0.91216667  0.40112000  1.0
  Li+  Li23  1  0.58700000  0.91216667  0.60112000  1.0
  Li+  Li24  1  0.58700000  0.91216667  0.80112000  1.0
  Li+  Li25  1  0.08700000  0.91216667  0.00112000  1.0
  Li+  Li26  1  0.08700000  0.91216667  0.20112000  1.0
  Li+  Li27  1  0.08700000  0.91216667  0.40112000  1.0
  Li+  Li28  1  0.08700000  0.91216667  0.60112000  1.0
  Li+  Li29  1  0.08700000  0.91216667  0.80112000  1.0
  Li+  Li30  1  0.91300000  0.92116667  0.10112000  1.0
  Li+  Li31  1  0.91300000  0.92116667  0.30112000  1.0
  Li+  Li32  1  0.91300000  0.92116667  0.50112000  1.0
  Li+  Li33  1  0.91300000  0.92116667  0.70112000  1.0
  Li+  Li34  1  0.91300000  0.92116667  0.90112000  1.0
  Li+  Li35  1  0.41300000  0.92116667  0.10112000  1.0
  Li+  Li36  1  0.41300000  0.92116667  0.30112000  1.0
  Li+  Li37  1  0.41300000  0.92116667  0.50112000  1.0
  Li+  Li38  1  0.41300000  0.92116667  0.70112000  1.0
  Li+  Li39  1  0.41300000  0.92116667  0.90112000  1.0
  Li+  Li40  1  0.67270000  0.66666667  0.10220000  1.0
  Li+  Li41  1  0.67270000  0.66666667  0.30220000  1.0
  Li+  Li42  1  0.67270000  0.66666667  0.50220000  1.0
  Li+  Li43  1  0.67270000  0.66666667  0.70220000  1.0
  Li+  Li44  1  0.67270000  0.66666667  0.90220000  1.0
  Li+  Li45  1  0.17270000  0.66666667  0.10220000  1.0
  Li+  Li46  1  0.17270000  0.66666667  0.30220000  1.0
  Li+  Li47  1  0.17270000  0.66666667  0.50220000  1.0
  Li+  Li48  1  0.17270000  0.66666667  0.70220000  1.0
  Li+  Li49  1  0.17270000  0.66666667  0.90220000  1.0
  Li+  Li50  1  0.82730000  0.16666667  0.00220000  1.0
  Li+  Li51  1  0.82730000  0.16666667  0.20220000  1.0
  Li+  Li52  1  0.82730000  0.16666667  0.40220000  1.0
  Li+  Li53  1  0.82730000  0.16666667  0.60220000  1.0
  Li+  Li54  1  0.82730000  0.16666667  0.80220000  1.0
  Li+  Li55  1  0.32730000  0.16666667  0.00220000  1.0
  Li+  Li56  1  0.32730000  0.16666667  0.20220000  1.0
  Li+  Li57  1  0.32730000  0.16666667  0.40220000  1.0
  Li+  Li58  1  0.32730000  0.16666667  0.60220000  1.0
  Li+  Li59  1  0.32730000  0.16666667  0.80220000  1.0
  Li+  Li60  1  0.51050000  0.16666667  0.95980000  1.0
  Sn4+  Sn61  1  0.66332000  0.16666667  0.90000000  1.0
  Sb5+  Sb62  1  0.83668000  0.66666667  0.00000000  1.0
  Sb5+  Sb63  1  0.83668000  0.66666667  0.20000000  1.0
  Sb5+  Sb64  1  0.83668000  0.66666667  0.40000000  1.0
  Sb5+  Sb65  1  0.83668000  0.66666667  0.60000000  1.0
  Sb5+  Sb66  1  0.83668000  0.66666667  0.80000000  1.0
  Sb5+  Sb67  1  0.33668000  0.66666667  0.00000000  1.0
  Sb5+  Sb68  1  0.33668000  0.66666667  0.20000000  1.0
  Sb5+  Sb69  1  0.33668000  0.66666667  0.40000000  1.0
  Sb5+  Sb70  1  0.33668000  0.66666667  0.60000000  1.0
  Sb5+  Sb71  1  0.33668000  0.66666667  0.80000000  1.0
  Sb5+  Sb72  1  0.66332000  0.16666667  0.10000000  1.0
  Sb5+  Sb73  1  0.66332000  0.16666667  0.30000000  1.0
  Sb5+  Sb74  1  0.66332000  0.16666667  0.50000000  1.0
  Sb5+  Sb75  1  0.66332000  0.16666667  0.70000000  1.0
  Sb5+  Sb76  1  0.16332000  0.16666667  0.10000000  1.0
  Sb5+  Sb77  1  0.16332000  0.16666667  0.30000000  1.0
  Sb5+  Sb78  1  0.16332000  0.16666667  0.50000000  1.0
  Sb5+  Sb79  1  0.16332000  0.16666667  0.70000000  1.0
  Sb5+  Sb80  1  0.16332000  0.16666667  0.90000000  1.0
  S2-  S81  1  0.91700000  0.42686667  0.02401800  1.0
  S2-  S82  1  0.91700000  0.42686667  0.22401800  1.0
  S2-  S83  1  0.91700000  0.42686667  0.42401800  1.0
  S2-  S84  1  0.91700000  0.42686667  0.62401800  1.0
  S2-  S85  1  0.91700000  0.42686667  0.82401800  1.0
  S2-  S86  1  0.41700000  0.42686667  0.02401800  1.0
  S2-  S87  1  0.41700000  0.42686667  0.22401800  1.0
  S2-  S88  1  0.41700000  0.42686667  0.42401800  1.0
  S2-  S89  1  0.41700000  0.42686667  0.62401800  1.0
  S2-  S90  1  0.41700000  0.42686667  0.82401800  1.0
  S2-  S91  1  0.58300000  0.40646667  0.12401800  1.0
  S2-  S92  1  0.58300000  0.40646667  0.32401800  1.0
  S2-  S93  1  0.58300000  0.40646667  0.52401800  1.0
  S2-  S94  1  0.58300000  0.40646667  0.72401800  1.0
  S2-  S95  1  0.58300000  0.40646667  0.92401800  1.0
  S2-  S96  1  0.08300000  0.40646667  0.12401800  1.0
  S2-  S97  1  0.08300000  0.40646667  0.32401800  1.0
  S2-  S98  1  0.08300000  0.40646667  0.52401800  1.0
  S2-  S99  1  0.08300000  0.40646667  0.72401800  1.0
  S2-  S100  1  0.08300000  0.40646667  0.92401800  1.0
  S2-  S101  1  0.58300000  0.92686667  0.12401800  1.0
  S2-  S102  1  0.58300000  0.92686667  0.32401800  1.0
  S2-  S103  1  0.58300000  0.92686667  0.52401800  1.0
  S2-  S104  1  0.58300000  0.92686667  0.72401800  1.0
  S2-  S105  1  0.58300000  0.92686667  0.92401800  1.0
  S2-  S106  1  0.08300000  0.92686667  0.12401800  1.0
  S2-  S107  1  0.08300000  0.92686667  0.32401800  1.0
  S2-  S108  1  0.08300000  0.92686667  0.52401800  1.0
  S2-  S109  1  0.08300000  0.92686667  0.72401800  1.0
  S2-  S110  1  0.08300000  0.92686667  0.92401800  1.0
  S2-  S111  1  0.91700000  0.90646667  0.02401800  1.0
  S2-  S112  1  0.91700000  0.90646667  0.22401800  1.0
  S2-  S113  1  0.91700000  0.90646667  0.42401800  1.0
  S2-  S114  1  0.91700000  0.90646667  0.62401800  1.0
  S2-  S115  1  0.91700000  0.90646667  0.82401800  1.0
  S2-  S116  1  0.41700000  0.90646667  0.02401800  1.0
  S2-  S117  1  0.41700000  0.90646667  0.22401800  1.0
  S2-  S118  1  0.41700000  0.90646667  0.42401800  1.0
  S2-  S119  1  0.41700000  0.90646667  0.62401800  1.0
  S2-  S120  1  0.41700000  0.90646667  0.82401800  1.0
  S2-  S121  1  0.67650000  0.66666667  0.02448000  1.0
  S2-  S122  1  0.67650000  0.66666667  0.22448000  1.0
  S2-  S123  1  0.67650000  0.66666667  0.42448000  1.0
  S2-  S124  1  0.67650000  0.66666667  0.62448000  1.0
  S2-  S125  1  0.67650000  0.66666667  0.82448000  1.0
  S2-  S126  1  0.17650000  0.66666667  0.02448000  1.0
  S2-  S127  1  0.17650000  0.66666667  0.22448000  1.0
  S2-  S128  1  0.17650000  0.66666667  0.42448000  1.0
  S2-  S129  1  0.17650000  0.66666667  0.62448000  1.0
  S2-  S130  1  0.17650000  0.66666667  0.82448000  1.0
  S2-  S131  1  0.82350000  0.16666667  0.12448000  1.0
  S2-  S132  1  0.82350000  0.16666667  0.32448000  1.0
  S2-  S133  1  0.82350000  0.16666667  0.52448000  1.0
  S2-  S134  1  0.82350000  0.16666667  0.72448000  1.0
  S2-  S135  1  0.82350000  0.16666667  0.92448000  1.0
  S2-  S136  1  0.32350000  0.16666667  0.12448000  1.0
  S2-  S137  1  0.32350000  0.16666667  0.32448000  1.0
  S2-  S138  1  0.32350000  0.16666667  0.52448000  1.0
  S2-  S139  1  0.32350000  0.16666667  0.72448000  1.0
  S2-  S140  1  0.32350000  0.16666667  0.92448000  1.0
  S2-  S141  1  0.84050000  0.66666667  0.12694000  1.0
  S2-  S142  1  0.84050000  0.66666667  0.32694000  1.0
  S2-  S143  1  0.84050000  0.66666667  0.52694000  1.0
  S2-  S144  1  0.84050000  0.66666667  0.72694000  1.0
  S2-  S145  1  0.84050000  0.66666667  0.92694000  1.0
  S2-  S146  1  0.34050000  0.66666667  0.12694000  1.0
  S2-  S147  1  0.34050000  0.66666667  0.32694000  1.0
  S2-  S148  1  0.34050000  0.66666667  0.52694000  1.0
  S2-  S149  1  0.34050000  0.66666667  0.72694000  1.0
  S2-  S150  1  0.34050000  0.66666667  0.92694000  1.0
  S2-  S151  1  0.65950000  0.16666667  0.02694000  1.0
  S2-  S152  1  0.65950000  0.16666667  0.22694000  1.0
  S2-  S153  1  0.65950000  0.16666667  0.42694000  1.0
  S2-  S154  1  0.65950000  0.16666667  0.62694000  1.0
  S2-  S155  1  0.65950000  0.16666667  0.82694000  1.0
  S2-  S156  1  0.15950000  0.16666667  0.02694000  1.0
  S2-  S157  1  0.15950000  0.16666667  0.22694000  1.0
  S2-  S158  1  0.15950000  0.16666667  0.42694000  1.0
  S2-  S159  1  0.15950000  0.16666667  0.62694000  1.0
  S2-  S160  1  0.15950000  0.16666667  0.82694000  1.0
