# generated using pymatgen
data_Li61SnSb19S80
_symmetry_space_group_name_H-M   'P 1'
_cell_length_a   7.96667000
_cell_length_b   13.70888000
_cell_length_c   31.88060000
_cell_angle_alpha   90.00000000
_cell_angle_beta   90.00000000
_cell_angle_gamma   90.00000000
_symmetry_Int_Tables_number   1
_chemical_formula_structural   Li61SnSb19S80
_chemical_formula_sum   'Li61 Sn1 Sb19 S80'
_cell_volume   3481.81177066
_cell_formula_units_Z   1
loop_
 _symmetry_equiv_pos_site_id
 _symmetry_equiv_pos_as_xyz
  1  'x, y, z'
loop_
 _atom_type_symbol
 _atom_type_oxidation_number
  Li+  1.0
  Sn4+  4.0
  Sb5+  5.0
  S2-  -2.0
loop_
 _atom_site_type_symbol
 _atom_site_label
 _atom_site_symmetry_multiplicity
 _atom_site_fract_x
 _atom_site_fract_y
 _atom_site_fract_z
 _atom_site_occupancy
  Li+  Li1  1  0.25450000  0.08700000  0.10112000  1.0
  Li+  Li1  1  0.25450000  0.08700000  0.30112000  1.0
  Li+  Li1  1  0.25450000  0.08700000  0.50112000  1.0
  Li+  Li1  1  0.25450000  0.08700000  0.70112000  1.0
  Li+  Li1  1  0.25450000  0.08700000  0.90112000  1.0
  Li+  Li1  1  0.25450000  0.58700000  0.10112000  1.0
  Li+  Li1  1  0.25450000  0.58700000  0.30112000  1.0
  Li+  Li1  1  0.25450000  0.58700000  0.50112000  1.0
  Li+  Li1  1  0.25450000  0.58700000  0.70112000  1.0
  Li+  Li1  1  0.25450000  0.58700000  0.90112000  1.0
  Li+  Li1  1  0.24550000  0.41300000  0.00112000  1.0
  Li+  Li1  1  0.24550000  0.41300000  0.20112000  1.0
  Li+  Li1  1  0.24550000  0.41300000  0.40112000  1.0
  Li+  Li1  1  0.24550000  0.41300000  0.60112000  1.0
  Li+  Li1  1  0.24550000  0.41300000  0.80112000  1.0
  Li+  Li1  1  0.24550000  0.91300000  0.00112000  1.0
  Li+  Li1  1  0.24550000  0.91300000  0.20112000  1.0
  Li+  Li1  1  0.24550000  0.91300000  0.40112000  1.0
  Li+  Li1  1  0.24550000  0.91300000  0.60112000  1.0
  Li+  Li1  1  0.24550000  0.91300000  0.80112000  1.0
  Li+  Li1  1  0.75450000  0.41300000  0.00112000  1.0
  Li+  Li1  1  0.75450000  0.41300000  0.20112000  1.0
  Li+  Li1  1  0.75450000  0.41300000  0.40112000  1.0
  Li+  Li1  1  0.75450000  0.41300000  0.60112000  1.0
  Li+  Li1  1  0.75450000  0.41300000  0.80112000  1.0
  Li+  Li1  1  0.75450000  0.91300000  0.00112000  1.0
  Li+  Li1  1  0.75450000  0.91300000  0.20112000  1.0
  Li+  Li1  1  0.75450000  0.91300000  0.40112000  1.0
  Li+  Li1  1  0.75450000  0.91300000  0.60112000  1.0
  Li+  Li1  1  0.75450000  0.91300000  0.80112000  1.0
  Li+  Li1  1  0.74550000  0.08700000  0.10112000  1.0
  Li+  Li1  1  0.74550000  0.08700000  0.30112000  1.0
  Li+  Li1  1  0.74550000  0.08700000  0.50112000  1.0
  Li+  Li1  1  0.74550000  0.08700000  0.70112000  1.0
  Li+  Li1  1  0.74550000  0.08700000  0.90112000  1.0
  Li+  Li1  1  0.74550000  0.58700000  0.10112000  1.0
  Li+  Li1  1  0.74550000  0.58700000  0.30112000  1.0
  Li+  Li1  1  0.74550000  0.58700000  0.50112000  1.0
  Li+  Li1  1  0.74550000  0.58700000  0.70112000  1.0
  Li+  Li1  1  0.74550000  0.58700000  0.90112000  1.0
  Li+  Li2  1  0.00000000  0.32730000  0.10220000  1.0
  Li+  Li2  1  0.00000000  0.32730000  0.30220000  1.0
  Li+  Li2  1  0.00000000  0.32730000  0.50220000  1.0
  Li+  Li2  1  0.00000000  0.32730000  0.70220000  1.0
  Li+  Li2  1  0.00000000  0.32730000  0.90220000  1.0
  Li+  Li2  1  0.00000000  0.82730000  0.10220000  1.0
  Li+  Li2  1  0.00000000  0.82730000  0.30220000  1.0
  Li+  Li2  1  0.00000000  0.82730000  0.50220000  1.0
  Li+  Li2  1  0.00000000  0.82730000  0.70220000  1.0
  Li+  Li2  1  0.00000000  0.82730000  0.90220000  1.0
  Li+  Li2  1  0.50000000  0.17270000  0.00220000  1.0
  Li+  Li2  1  0.50000000  0.17270000  0.20220000  1.0
  Li+  Li2  1  0.50000000  0.17270000  0.40220000  1.0
  Li+  Li2  1  0.50000000  0.17270000  0.60220000  1.0
  Li+  Li2  1  0.50000000  0.17270000  0.80220000  1.0
  Li+  Li2  1  0.50000000  0.67270000  0.00220000  1.0
  Li+  Li2  1  0.50000000  0.67270000  0.20220000  1.0
  Li+  Li2  1  0.50000000  0.67270000  0.40220000  1.0
  Li+  Li2  1  0.50000000  0.67270000  0.60220000  1.0
  Li+  Li2  1  0.50000000  0.67270000  0.80220000  1.0
  Li+  Li60  1  0.50000000  0.48950000  0.95980000  1.0
  Sn4+  Sn61  1  0.50000000  0.33668000  0.90000000  1.0
  Sb5+  Sb62  1  0.00000000  0.16332000  0.00000000  1.0
  Sb5+  Sb63  1  0.00000000  0.16332000  0.20000000  1.0
  Sb5+  Sb64  1  0.00000000  0.16332000  0.40000000  1.0
  Sb5+  Sb65  1  0.00000000  0.16332000  0.60000000  1.0
  Sb5+  Sb66  1  0.00000000  0.16332000  0.80000000  1.0
  Sb5+  Sb67  1  0.00000000  0.66332000  0.00000000  1.0
  Sb5+  Sb68  1  0.00000000  0.66332000  0.20000000  1.0
  Sb5+  Sb69  1  0.00000000  0.66332000  0.40000000  1.0
  Sb5+  Sb70  1  0.00000000  0.66332000  0.60000000  1.0
  Sb5+  Sb71  1  0.00000000  0.66332000  0.80000000  1.0
  Sb5+  Sb72  1  0.50000000  0.33668000  0.10000000  1.0
  Sb5+  Sb73  1  0.50000000  0.33668000  0.30000000  1.0
  Sb5+  Sb74  1  0.50000000  0.33668000  0.50000000  1.0
  Sb5+  Sb75  1  0.50000000  0.33668000  0.70000000  1.0
  Sb5+  Sb76  1  0.50000000  0.83668000  0.10000000  1.0
  Sb5+  Sb77  1  0.50000000  0.83668000  0.30000000  1.0
  Sb5+  Sb78  1  0.50000000  0.83668000  0.50000000  1.0
  Sb5+  Sb79  1  0.50000000  0.83668000  0.70000000  1.0
  Sb5+  Sb80  1  0.50000000  0.83668000  0.90000000  1.0
  S2-  S1  1  0.23980000  0.08300000  0.02401800  1.0
  S2-  S1  1  0.23980000  0.08300000  0.22401800  1.0
  S2-  S1  1  0.23980000  0.08300000  0.42401800  1.0
  S2-  S1  1  0.23980000  0.08300000  0.62401800  1.0
  S2-  S1  1  0.23980000  0.08300000  0.82401800  1.0
  S2-  S1  1  0.23980000  0.58300000  0.02401800  1.0
  S2-  S1  1  0.23980000  0.58300000  0.22401800  1.0
  S2-  S1  1  0.23980000  0.58300000  0.42401800  1.0
  S2-  S1  1  0.23980000  0.58300000  0.62401800  1.0
  S2-  S1  1  0.23980000  0.58300000  0.82401800  1.0
  S2-  S1  1  0.26020000  0.41700000  0.12401800  1.0
  S2-  S1  1  0.26020000  0.41700000  0.32401800  1.0
  S2-  S1  1  0.26020000  0.41700000  0.52401800  1.0
  S2-  S1  1  0.26020000  0.41700000  0.72401800  1.0
  S2-  S1  1  0.26020000  0.41700000  0.92401800  1.0
  S2-  S1  1  0.26020000  0.91700000  0.12401800  1.0
  S2-  S1  1  0.26020000  0.91700000  0.32401800  1.0
  S2-  S1  1  0.26020000  0.91700000  0.52401800  1.0
  S2-  S1  1  0.26020000  0.91700000  0.72401800  1.0
  S2-  S1  1  0.26020000  0.91700000  0.92401800  1.0
  S2-  S1  1  0.73980000  0.41700000  0.12401800  1.0
  S2-  S1  1  0.73980000  0.41700000  0.32401800  1.0
  S2-  S1  1  0.73980000  0.41700000  0.52401800  1.0
  S2-  S1  1  0.73980000  0.41700000  0.72401800  1.0
  S2-  S1  1  0.73980000  0.41700000  0.92401800  1.0
  S2-  S1  1  0.73980000  0.91700000  0.12401800  1.0
  S2-  S1  1  0.73980000  0.91700000  0.32401800  1.0
  S2-  S1  1  0.73980000  0.91700000  0.52401800  1.0
  S2-  S1  1  0.73980000  0.91700000  0.72401800  1.0
  S2-  S1  1  0.73980000  0.91700000  0.92401800  1.0
  S2-  S1  1  0.76020000  0.08300000  0.02401800  1.0
  S2-  S1  1  0.76020000  0.08300000  0.22401800  1.0
  S2-  S1  1  0.76020000  0.08300000  0.42401800  1.0
  S2-  S1  1  0.76020000  0.08300000  0.62401800  1.0
  S2-  S1  1  0.76020000  0.08300000  0.82401800  1.0
  S2-  S1  1  0.76020000  0.58300000  0.02401800  1.0
  S2-  S1  1  0.76020000  0.58300000  0.22401800  1.0
  S2-  S1  1  0.76020000  0.58300000  0.42401800  1.0
  S2-  S1  1  0.76020000  0.58300000  0.62401800  1.0
  S2-  S1  1  0.76020000  0.58300000  0.82401800  1.0
  S2-  S2  1  0.00000000  0.32350000  0.02448000  1.0
  S2-  S2  1  0.00000000  0.32350000  0.22448000  1.0
  S2-  S2  1  0.00000000  0.32350000  0.42448000  1.0
  S2-  S2  1  0.00000000  0.32350000  0.62448000  1.0
  S2-  S2  1  0.00000000  0.32350000  0.82448000  1.0
  S2-  S2  1  0.00000000  0.82350000  0.02448000  1.0
  S2-  S2  1  0.00000000  0.82350000  0.22448000  1.0
  S2-  S2  1  0.00000000  0.82350000  0.42448000  1.0
  S2-  S2  1  0.00000000  0.82350000  0.62448000  1.0
  S2-  S2  1  0.00000000  0.82350000  0.82448000  1.0
  S2-  S2  1  0.50000000  0.17650000  0.12448000  1.0
  S2-  S2  1  0.50000000  0.17650000  0.32448000  1.0
  S2-  S2  1  0.50000000  0.17650000  0.52448000  1.0
  S2-  S2  1  0.50000000  0.17650000  0.72448000  1.0
  S2-  S2  1  0.50000000  0.17650000  0.92448000  1.0
  S2-  S2  1  0.50000000  0.67650000  0.12448000  1.0
  S2-  S2  1  0.50000000  0.67650000  0.32448000  1.0
  S2-  S2  1  0.50000000  0.67650000  0.52448000  1.0
  S2-  S2  1  0.50000000  0.67650000  0.72448000  1.0
  S2-  S2  1  0.50000000  0.67650000  0.92448000  1.0
  S2-  S3  1  0.00000000  0.15950000  0.12694000  1.0
  S2-  S3  1  0.00000000  0.15950000  0.32694000  1.0
  S2-  S3  1  0.00000000  0.15950000  0.52694000  1.0
  S2-  S3  1  0.00000000  0.15950000  0.72694000  1.0
  S2-  S3  1  0.00000000  0.15950000  0.92694000  1.0
  S2-  S3  1  0.00000000  0.65950000  0.12694000  1.0
  S2-  S3  1  0.00000000  0.65950000  0.32694000  1.0
  S2-  S3  1  0.00000000  0.65950000  0.52694000  1.0
  S2-  S3  1  0.00000000  0.65950000  0.72694000  1.0
  S2-  S3  1  0.00000000  0.65950000  0.92694000  1.0
  S2-  S3  1  0.50000000  0.34050000  0.02694000  1.0
  S2-  S3  1  0.50000000  0.34050000  0.22694000  1.0
  S2-  S3  1  0.50000000  0.34050000  0.42694000  1.0
  S2-  S3  1  0.50000000  0.34050000  0.62694000  1.0
  S2-  S3  1  0.50000000  0.34050000  0.82694000  1.0
  S2-  S3  1  0.50000000  0.84050000  0.02694000  1.0
  S2-  S3  1  0.50000000  0.84050000  0.22694000  1.0
  S2-  S3  1  0.50000000  0.84050000  0.42694000  1.0
  S2-  S3  1  0.50000000  0.84050000  0.62694000  1.0
  S2-  S3  1  0.50000000  0.84050000  0.82694000  1.0
