# generated using pymatgen
data_Li3YbCl6
_symmetry_space_group_name_H-M   'P 1'
_cell_length_a   12.05900000
_cell_length_b   12.86600000
_cell_length_c   22.26400000
_cell_angle_alpha   90.00000000
_cell_angle_beta   90.00000000
_cell_angle_gamma   90.00000000
_symmetry_Int_Tables_number   1
_chemical_formula_structural   Li3YbCl6
_chemical_formula_sum   'Li48 Yb16 Cl96'
_cell_volume   3454.28395682
_cell_formula_units_Z   16
loop_
 _symmetry_equiv_pos_site_id
 _symmetry_equiv_pos_as_xyz
  1  'x, y, z'
loop_
 _atom_type_symbol
 _atom_type_oxidation_number
  Li+  1.0
  Yb3+  3.0
  Cl-  -1.0
loop_
 _atom_site_type_symbol
 _atom_site_label
 _atom_site_symmetry_multiplicity
 _atom_site_fract_x
 _atom_site_fract_y
 _atom_site_fract_z
 _atom_site_occupancy
  Li+  Li0  1  0.99695000  0.36320000  0.54570000  1.0
  Li+  Li1  1  0.99716956  0.36303105  0.04414101  1.0
  Li+  Li2  1  0.75305000  0.86320000  0.70430000  1.0
  Li+  Li3  1  0.75305000  0.86320000  0.20430000  1.0
  Li+  Li4  1  0.00305000  0.63680000  0.29570000  1.0
  Li+  Li5  1  0.00305000  0.63680000  0.79570000  1.0
  Li+  Li6  1  0.74364915  0.14451621  0.45466799  1.0
  Li+  Li7  1  0.74695000  0.13680000  0.95430000  1.0
  Li+  Li8  1  0.50233656  0.63927030  0.45322809  1.0
  Li+  Li9  1  0.49919393  0.63496292  0.95651863  1.0
  Li+  Li10  1  0.24695000  0.13680000  0.29570000  1.0
  Li+  Li11  1  0.24695000  0.13680000  0.79570000  1.0
  Li+  Li12  1  0.99695000  0.36320000  0.70430000  1.0
  Li+  Li13  1  0.99695000  0.36320000  0.20430000  1.0
  Li+  Li14  1  0.75305000  0.86320000  0.54570000  1.0
  Li+  Li15  1  0.75305000  0.86320000  0.04570000  1.0
  Li+  Li16  1  0.49681955  0.11332558  0.46102364  1.0
  Li+  Li17  1  0.49715000  0.11680000  0.96170000  1.0
  Li+  Li18  1  0.99715000  0.11680000  0.46170000  1.0
  Li+  Li19  1  0.99715000  0.11680000  0.96170000  1.0
  Li+  Li20  1  0.25170891  0.61213957  0.28900155  1.0
  Li+  Li21  1  0.25285000  0.61680000  0.78830000  1.0
  Li+  Li22  1  0.75196967  0.61735221  0.28834574  1.0
  Li+  Li23  1  0.75285000  0.61680000  0.78830000  1.0
  Li+  Li24  1  0.00285000  0.88320000  0.71170000  1.0
  Li+  Li25  1  0.00077359  0.88124009  0.21223717  1.0
  Li+  Li26  1  0.50285000  0.88320000  0.71170000  1.0
  Li+  Li27  1  0.50285000  0.88320000  0.21170000  1.0
  Li+  Li28  1  0.24715000  0.38320000  0.53830000  1.0
  Li+  Li29  1  0.24902791  0.38305849  0.03588631  1.0
  Li+  Li30  1  0.74715000  0.38320000  0.53830000  1.0
  Li+  Li31  1  0.74715000  0.38320000  0.03830000  1.0
  Li+  Li32  1  0.00285000  0.88320000  0.53830000  1.0
  Li+  Li33  1  0.00285000  0.88320000  0.03830000  1.0
  Li+  Li34  1  0.50285000  0.88320000  0.53830000  1.0
  Li+  Li35  1  0.50285000  0.88320000  0.03830000  1.0
  Li+  Li36  1  0.24715000  0.38320000  0.71170000  1.0
  Li+  Li37  1  0.24715000  0.38320000  0.21170000  1.0
  Li+  Li38  1  0.74715000  0.38320000  0.71170000  1.0
  Li+  Li39  1  0.74715000  0.38320000  0.21170000  1.0
  Li+  Li40  1  0.50035369  0.11997357  0.28823502  1.0
  Li+  Li41  1  0.49715000  0.11680000  0.78830000  1.0
  Li+  Li42  1  0.99715000  0.11680000  0.28830000  1.0
  Li+  Li43  1  0.99715000  0.11680000  0.78830000  1.0
  Li+  Li44  1  0.25285000  0.61680000  0.46170000  1.0
  Li+  Li45  1  0.25285000  0.61680000  0.96170000  1.0
  Li+  Li46  1  0.75285000  0.61680000  0.46170000  1.0
  Li+  Li47  1  0.75285000  0.61680000  0.96170000  1.0
  Yb3+  Yb48  1  0.25535000  0.87560000  0.37500000  1.0
  Yb3+  Yb49  1  0.25521439  0.87691797  0.87392255  1.0
  Yb3+  Yb50  1  0.75528376  0.87648842  0.36942881  1.0
  Yb3+  Yb51  1  0.75535000  0.87560000  0.87500000  1.0
  Yb3+  Yb52  1  0.49465000  0.37560000  0.37500000  1.0
  Yb3+  Yb53  1  0.49465000  0.37560000  0.87500000  1.0
  Yb3+  Yb54  1  0.99465000  0.37560000  0.37500000  1.0
  Yb3+  Yb55  1  0.99203247  0.37580219  0.87756974  1.0
  Yb3+  Yb56  1  0.24413610  0.12681646  0.62675156  1.0
  Yb3+  Yb57  1  0.24465000  0.12440000  0.12500000  1.0
  Yb3+  Yb58  1  0.74465000  0.12440000  0.62500000  1.0
  Yb3+  Yb59  1  0.74465000  0.12440000  0.12500000  1.0
  Yb3+  Yb60  1  0.00535000  0.62440000  0.62500000  1.0
  Yb3+  Yb61  1  0.00122856  0.62072421  0.12267477  1.0
  Yb3+  Yb62  1  0.50935395  0.63039313  0.62743897  1.0
  Yb3+  Yb63  1  0.50609583  0.62573670  0.12368485  1.0
  Cl-  Cl64  1  0.11360000  0.29080000  0.45930000  1.0
  Cl-  Cl65  1  0.11360000  0.29080000  0.95930000  1.0
  Cl-  Cl66  1  0.61360000  0.29080000  0.45930000  1.0
  Cl-  Cl67  1  0.61360000  0.29080000  0.95930000  1.0
  Cl-  Cl68  1  0.13640000  0.79080000  0.29070000  1.0
  Cl-  Cl69  1  0.13640000  0.79080000  0.79070000  1.0
  Cl-  Cl70  1  0.63451077  0.79096684  0.28588667  1.0
  Cl-  Cl71  1  0.63640000  0.79080000  0.79070000  1.0
  Cl-  Cl72  1  0.38832707  0.71357791  0.70829343  1.0
  Cl-  Cl73  1  0.38640000  0.70920000  0.20930000  1.0
  Cl-  Cl74  1  0.88640000  0.70920000  0.70930000  1.0
  Cl-  Cl75  1  0.88640000  0.70920000  0.20930000  1.0
  Cl-  Cl76  1  0.36360000  0.20920000  0.54070000  1.0
  Cl-  Cl77  1  0.36360000  0.20920000  0.04070000  1.0
  Cl-  Cl78  1  0.86360000  0.20920000  0.54070000  1.0
  Cl-  Cl79  1  0.86360000  0.20920000  0.04070000  1.0
  Cl-  Cl80  1  0.38640000  0.70920000  0.54070000  1.0
  Cl-  Cl81  1  0.38640000  0.70920000  0.04070000  1.0
  Cl-  Cl82  1  0.88640000  0.70920000  0.54070000  1.0
  Cl-  Cl83  1  0.88640000  0.70920000  0.04070000  1.0
  Cl-  Cl84  1  0.36318586  0.20979591  0.70910900  1.0
  Cl-  Cl85  1  0.36360000  0.20920000  0.20930000  1.0
  Cl-  Cl86  1  0.86360000  0.20920000  0.70930000  1.0
  Cl-  Cl87  1  0.86319267  0.21249421  0.20808719  1.0
  Cl-  Cl88  1  0.11360000  0.29080000  0.29070000  1.0
  Cl-  Cl89  1  0.11360000  0.29080000  0.79070000  1.0
  Cl-  Cl90  1  0.61360000  0.29080000  0.29070000  1.0
  Cl-  Cl91  1  0.61138181  0.29435606  0.79041059  1.0
  Cl-  Cl92  1  0.13640000  0.79080000  0.45930000  1.0
  Cl-  Cl93  1  0.13640000  0.79080000  0.95930000  1.0
  Cl-  Cl94  1  0.63640000  0.79080000  0.45930000  1.0
  Cl-  Cl95  1  0.63640000  0.79080000  0.95930000  1.0
  Cl-  Cl96  1  0.36205059  0.95749751  0.62574629  1.0
  Cl-  Cl97  1  0.36435000  0.95680000  0.12500000  1.0
  Cl-  Cl98  1  0.86435000  0.95680000  0.62500000  1.0
  Cl-  Cl99  1  0.86236104  0.95906635  0.12742301  1.0
  Cl-  Cl100  1  0.38527707  0.45556532  0.62471553  1.0
  Cl-  Cl101  1  0.38565000  0.45680000  0.12500000  1.0
  Cl-  Cl102  1  0.88459439  0.45652397  0.62603576  1.0
  Cl-  Cl103  1  0.88565000  0.45680000  0.12500000  1.0
  Cl-  Cl104  1  0.13565000  0.04320000  0.37500000  1.0
  Cl-  Cl105  1  0.13406668  0.04574667  0.87414412  1.0
  Cl-  Cl106  1  0.63660258  0.03789946  0.37425571  1.0
  Cl-  Cl107  1  0.63821162  0.04532378  0.87843330  1.0
  Cl-  Cl108  1  0.11435000  0.54320000  0.37500000  1.0
  Cl-  Cl109  1  0.11435000  0.54320000  0.87500000  1.0
  Cl-  Cl110  1  0.61435000  0.54320000  0.37500000  1.0
  Cl-  Cl111  1  0.61435000  0.54320000  0.87500000  1.0
  Cl-  Cl112  1  0.37515000  0.95820000  0.45915000  1.0
  Cl-  Cl113  1  0.37515000  0.95820000  0.95915000  1.0
  Cl-  Cl114  1  0.87515000  0.95820000  0.45915000  1.0
  Cl-  Cl115  1  0.87515000  0.95820000  0.95915000  1.0
  Cl-  Cl116  1  0.37485000  0.45820000  0.29085000  1.0
  Cl-  Cl117  1  0.37485000  0.45820000  0.79085000  1.0
  Cl-  Cl118  1  0.87386366  0.45766253  0.29344083  1.0
  Cl-  Cl119  1  0.87485000  0.45820000  0.79085000  1.0
  Cl-  Cl120  1  0.12485000  0.04180000  0.70915000  1.0
  Cl-  Cl121  1  0.12485000  0.04180000  0.20915000  1.0
  Cl-  Cl122  1  0.61966835  0.04735387  0.70984813  1.0
  Cl-  Cl123  1  0.62485000  0.04180000  0.20915000  1.0
  Cl-  Cl124  1  0.12515000  0.54180000  0.54085000  1.0
  Cl-  Cl125  1  0.12515000  0.54180000  0.04085000  1.0
  Cl-  Cl126  1  0.62515000  0.54180000  0.54085000  1.0
  Cl-  Cl127  1  0.62515000  0.54180000  0.04085000  1.0
  Cl-  Cl128  1  0.12812061  0.03784300  0.54193041  1.0
  Cl-  Cl129  1  0.12755481  0.04348631  0.04035712  1.0
  Cl-  Cl130  1  0.62485000  0.04180000  0.54085000  1.0
  Cl-  Cl131  1  0.62574405  0.04255085  0.03822982  1.0
  Cl-  Cl132  1  0.12368558  0.54723362  0.71120822  1.0
  Cl-  Cl133  1  0.12515000  0.54180000  0.20915000  1.0
  Cl-  Cl134  1  0.61954201  0.54356303  0.70982943  1.0
  Cl-  Cl135  1  0.62515000  0.54180000  0.20915000  1.0
  Cl-  Cl136  1  0.37515000  0.95820000  0.29085000  1.0
  Cl-  Cl137  1  0.37515000  0.95820000  0.79085000  1.0
  Cl-  Cl138  1  0.87515000  0.95820000  0.29085000  1.0
  Cl-  Cl139  1  0.87515000  0.95820000  0.79085000  1.0
  Cl-  Cl140  1  0.37485000  0.45820000  0.45915000  1.0
  Cl-  Cl141  1  0.37485000  0.45820000  0.95915000  1.0
  Cl-  Cl142  1  0.87507130  0.45934150  0.46106299  1.0
  Cl-  Cl143  1  0.87665602  0.45939045  0.96076034  1.0
  Cl-  Cl144  1  0.36980000  0.70480000  0.37500000  1.0
  Cl-  Cl145  1  0.36980000  0.70480000  0.87500000  1.0
  Cl-  Cl146  1  0.86980000  0.70480000  0.37500000  1.0
  Cl-  Cl147  1  0.86980000  0.70480000  0.87500000  1.0
  Cl-  Cl148  1  0.38264345  0.20487782  0.37677777  1.0
  Cl-  Cl149  1  0.38020000  0.20480000  0.87500000  1.0
  Cl-  Cl150  1  0.88020000  0.20480000  0.37500000  1.0
  Cl-  Cl151  1  0.88020000  0.20480000  0.87500000  1.0
  Cl-  Cl152  1  0.13020000  0.29520000  0.62500000  1.0
  Cl-  Cl153  1  0.13020000  0.29520000  0.12500000  1.0
  Cl-  Cl154  1  0.63020000  0.29520000  0.62500000  1.0
  Cl-  Cl155  1  0.63020000  0.29520000  0.12500000  1.0
  Cl-  Cl156  1  0.11960323  0.79496338  0.62209253  1.0
  Cl-  Cl157  1  0.11980000  0.79520000  0.12500000  1.0
  Cl-  Cl158  1  0.61980000  0.79520000  0.62500000  1.0
  Cl-  Cl159  1  0.61980000  0.79520000  0.12500000  1.0
