# generated using pymatgen
data_Li3YbCl6
_symmetry_space_group_name_H-M   'P 1'
_cell_length_a   22.26011833
_cell_length_b   12.05689755
_cell_length_c   12.86375685
_cell_angle_alpha   90.00000000
_cell_angle_beta   90.00000000
_cell_angle_gamma   90.00000000
_symmetry_Int_Tables_number   1
_chemical_formula_structural   Li3YbCl6
_chemical_formula_sum   'Li48 Yb16 Cl96'
_cell_volume   3452.47753809
_cell_formula_units_Z   16
loop_
 _symmetry_equiv_pos_site_id
 _symmetry_equiv_pos_as_xyz
  1  'x, y, z'
loop_
 _atom_type_symbol
 _atom_type_oxidation_number
  Li+  1.0
  Yb3+  3.0
  Cl-  -1.0
loop_
 _atom_site_type_symbol
 _atom_site_label
 _atom_site_symmetry_multiplicity
 _atom_site_fract_x
 _atom_site_fract_y
 _atom_site_fract_z
 _atom_site_occupancy
  Li+  Li0  1  0.79570000  0.66971667  0.63680000  1.0
  Li+  Li1  1  0.29570000  0.66971667  0.63680000  1.0
  Li+  Li2  1  0.95430000  0.91361667  0.13680000  1.0
  Li+  Li3  1  0.45430000  0.91361667  0.13680000  1.0
  Li+  Li4  1  0.54570000  0.66361667  0.36320000  1.0
  Li+  Li5  1  0.04570000  0.66361667  0.36320000  1.0
  Li+  Li6  1  0.70430000  0.91971667  0.86320000  1.0
  Li+  Li7  1  0.20430000  0.91971667  0.86320000  1.0
  Li+  Li8  1  0.70430000  0.16361667  0.36320000  1.0
  Li+  Li9  1  0.20430000  0.16361667  0.36320000  1.0
  Li+  Li10  1  0.54570000  0.41971667  0.86320000  1.0
  Li+  Li11  1  0.04570000  0.41971667  0.86320000  1.0
  Li+  Li12  1  0.95430000  0.66971667  0.63680000  1.0
  Li+  Li13  1  0.45430000  0.66971667  0.63680000  1.0
  Li+  Li14  1  0.79570000  0.91361667  0.13680000  1.0
  Li+  Li15  1  0.29570000  0.91361667  0.13680000  1.0
  Li+  Li16  1  0.71170000  0.16951667  0.88320000  1.0
  Li+  Li17  1  0.21170000  0.16951667  0.88320000  1.0
  Li+  Li18  1  0.71170000  0.66951667  0.88320000  1.0
  Li+  Li19  1  0.21170000  0.66951667  0.88320000  1.0
  Li+  Li20  1  0.53830000  0.41381667  0.38320000  1.0
  Li+  Li21  1  0.03830000  0.41381667  0.38320000  1.0
  Li+  Li22  1  0.53830000  0.91381667  0.38320000  1.0
  Li+  Li23  1  0.03830000  0.91381667  0.38320000  1.0
  Li+  Li24  1  0.96170000  0.66381667  0.11680000  1.0
  Li+  Li25  1  0.46170000  0.66381667  0.11680000  1.0
  Li+  Li26  1  0.96170000  0.16381667  0.11680000  1.0
  Li+  Li27  1  0.46170000  0.16381667  0.11680000  1.0
  Li+  Li28  1  0.78830000  0.41951667  0.61680000  1.0
  Li+  Li29  1  0.28830000  0.41951667  0.61680000  1.0
  Li+  Li30  1  0.78830000  0.91951667  0.61680000  1.0
  Li+  Li31  1  0.28830000  0.91951667  0.61680000  1.0
  Li+  Li32  1  0.78830000  0.66381667  0.11680000  1.0
  Li+  Li33  1  0.28830000  0.66381667  0.11680000  1.0
  Li+  Li34  1  0.78830000  0.16381667  0.11680000  1.0
  Li+  Li35  1  0.28830000  0.16381667  0.11680000  1.0
  Li+  Li36  1  0.96170000  0.41951667  0.61680000  1.0
  Li+  Li37  1  0.46170000  0.41951667  0.61680000  1.0
  Li+  Li38  1  0.96170000  0.91951667  0.61680000  1.0
  Li+  Li39  1  0.46170000  0.91951667  0.61680000  1.0
  Li+  Li40  1  0.53830000  0.16951667  0.88320000  1.0
  Li+  Li41  1  0.03830000  0.16951667  0.88320000  1.0
  Li+  Li42  1  0.53830000  0.66951667  0.88320000  1.0
  Li+  Li43  1  0.03830000  0.66951667  0.88320000  1.0
  Li+  Li44  1  0.71170000  0.41381667  0.38320000  1.0
  Li+  Li45  1  0.21170000  0.41381667  0.38320000  1.0
  Li+  Li46  1  0.71170000  0.91381667  0.38320000  1.0
  Li+  Li47  1  0.21170000  0.91381667  0.38320000  1.0
  Yb3+  Yb48  1  0.62500000  0.41131667  0.12440000  1.0
  Yb3+  Yb49  1  0.12500000  0.41131667  0.12440000  1.0
  Yb3+  Yb50  1  0.62500000  0.91131667  0.12440000  1.0
  Yb3+  Yb51  1  0.12500000  0.91131667  0.12440000  1.0
  Yb3+  Yb52  1  0.62500000  0.17201667  0.62440000  1.0
  Yb3+  Yb53  1  0.12500000  0.17201667  0.62440000  1.0
  Yb3+  Yb54  1  0.62500000  0.67201667  0.62440000  1.0
  Yb3+  Yb55  1  0.12500000  0.67201667  0.62440000  1.0
  Yb3+  Yb56  1  0.87500000  0.42201667  0.87560000  1.0
  Yb3+  Yb57  1  0.37500000  0.42201667  0.87560000  1.0
  Yb3+  Yb58  1  0.87500000  0.92201667  0.87560000  1.0
  Yb3+  Yb59  1  0.37500000  0.92201667  0.87560000  1.0
  Yb3+  Yb60  1  0.87500000  0.66131667  0.37560000  1.0
  Yb3+  Yb61  1  0.37500000  0.66131667  0.37560000  1.0
  Yb3+  Yb62  1  0.87500000  0.16131667  0.37560000  1.0
  Yb3+  Yb63  1  0.37500000  0.16131667  0.37560000  1.0
  Cl-  Cl64  1  0.70930000  0.55306667  0.70920000  1.0
  Cl-  Cl65  1  0.20930000  0.55306667  0.70920000  1.0
  Cl-  Cl66  1  0.70930000  0.05306667  0.70920000  1.0
  Cl-  Cl67  1  0.20930000  0.05306667  0.70920000  1.0
  Cl-  Cl68  1  0.54070000  0.53026667  0.20920000  1.0
  Cl-  Cl69  1  0.04070000  0.53026667  0.20920000  1.0
  Cl-  Cl70  1  0.54070000  0.03026667  0.20920000  1.0
  Cl-  Cl71  1  0.04070000  0.03026667  0.20920000  1.0
  Cl-  Cl72  1  0.95930000  0.28026667  0.29080000  1.0
  Cl-  Cl73  1  0.45930000  0.28026667  0.29080000  1.0
  Cl-  Cl74  1  0.95930000  0.78026667  0.29080000  1.0
  Cl-  Cl75  1  0.45930000  0.78026667  0.29080000  1.0
  Cl-  Cl76  1  0.79070000  0.30306667  0.79080000  1.0
  Cl-  Cl77  1  0.29070000  0.30306667  0.79080000  1.0
  Cl-  Cl78  1  0.79070000  0.80306667  0.79080000  1.0
  Cl-  Cl79  1  0.29070000  0.80306667  0.79080000  1.0
  Cl-  Cl80  1  0.79070000  0.28026667  0.29080000  1.0
  Cl-  Cl81  1  0.29070000  0.28026667  0.29080000  1.0
  Cl-  Cl82  1  0.79070000  0.78026667  0.29080000  1.0
  Cl-  Cl83  1  0.29070000  0.78026667  0.29080000  1.0
  Cl-  Cl84  1  0.95930000  0.30306667  0.79080000  1.0
  Cl-  Cl85  1  0.45930000  0.30306667  0.79080000  1.0
  Cl-  Cl86  1  0.95930000  0.80306667  0.79080000  1.0
  Cl-  Cl87  1  0.45930000  0.80306667  0.79080000  1.0
  Cl-  Cl88  1  0.54070000  0.55306667  0.70920000  1.0
  Cl-  Cl89  1  0.04070000  0.55306667  0.70920000  1.0
  Cl-  Cl90  1  0.54070000  0.05306667  0.70920000  1.0
  Cl-  Cl91  1  0.04070000  0.05306667  0.70920000  1.0
  Cl-  Cl92  1  0.70930000  0.53026667  0.20920000  1.0
  Cl-  Cl93  1  0.20930000  0.53026667  0.20920000  1.0
  Cl-  Cl94  1  0.70930000  0.03026667  0.20920000  1.0
  Cl-  Cl95  1  0.20930000  0.03026667  0.20920000  1.0
  Cl-  Cl96  1  0.87500000  0.30231667  0.04320000  1.0
  Cl-  Cl97  1  0.37500000  0.30231667  0.04320000  1.0
  Cl-  Cl98  1  0.87500000  0.80231667  0.04320000  1.0
  Cl-  Cl99  1  0.37500000  0.80231667  0.04320000  1.0
  Cl-  Cl100  1  0.87500000  0.28101667  0.54320000  1.0
  Cl-  Cl101  1  0.37500000  0.28101667  0.54320000  1.0
  Cl-  Cl102  1  0.87500000  0.78101667  0.54320000  1.0
  Cl-  Cl103  1  0.37500000  0.78101667  0.54320000  1.0
  Cl-  Cl104  1  0.62500000  0.53101667  0.95680000  1.0
  Cl-  Cl105  1  0.12500000  0.53101667  0.95680000  1.0
  Cl-  Cl106  1  0.62500000  0.03101667  0.95680000  1.0
  Cl-  Cl107  1  0.12500000  0.03101667  0.95680000  1.0
  Cl-  Cl108  1  0.62500000  0.55231667  0.45680000  1.0
  Cl-  Cl109  1  0.12500000  0.55231667  0.45680000  1.0
  Cl-  Cl110  1  0.62500000  0.05231667  0.45680000  1.0
  Cl-  Cl111  1  0.12500000  0.05231667  0.45680000  1.0
  Cl-  Cl112  1  0.70915000  0.29151667  0.04180000  1.0
  Cl-  Cl113  1  0.20915000  0.29151667  0.04180000  1.0
  Cl-  Cl114  1  0.70915000  0.79151667  0.04180000  1.0
  Cl-  Cl115  1  0.20915000  0.79151667  0.04180000  1.0
  Cl-  Cl116  1  0.54085000  0.29181667  0.54180000  1.0
  Cl-  Cl117  1  0.04085000  0.29181667  0.54180000  1.0
  Cl-  Cl118  1  0.54085000  0.79181667  0.54180000  1.0
  Cl-  Cl119  1  0.04085000  0.79181667  0.54180000  1.0
  Cl-  Cl120  1  0.95915000  0.54181667  0.95820000  1.0
  Cl-  Cl121  1  0.45915000  0.54181667  0.95820000  1.0
  Cl-  Cl122  1  0.95915000  0.04181667  0.95820000  1.0
  Cl-  Cl123  1  0.45915000  0.04181667  0.95820000  1.0
  Cl-  Cl124  1  0.79085000  0.54151667  0.45820000  1.0
  Cl-  Cl125  1  0.29085000  0.54151667  0.45820000  1.0
  Cl-  Cl126  1  0.79085000  0.04151667  0.45820000  1.0
  Cl-  Cl127  1  0.29085000  0.04151667  0.45820000  1.0
  Cl-  Cl128  1  0.79085000  0.54181667  0.95820000  1.0
  Cl-  Cl129  1  0.29085000  0.54181667  0.95820000  1.0
  Cl-  Cl130  1  0.79085000  0.04181667  0.95820000  1.0
  Cl-  Cl131  1  0.29085000  0.04181667  0.95820000  1.0
  Cl-  Cl132  1  0.95915000  0.54151667  0.45820000  1.0
  Cl-  Cl133  1  0.45915000  0.54151667  0.45820000  1.0
  Cl-  Cl134  1  0.95915000  0.04151667  0.45820000  1.0
  Cl-  Cl135  1  0.45915000  0.04151667  0.45820000  1.0
  Cl-  Cl136  1  0.54085000  0.29151667  0.04180000  1.0
  Cl-  Cl137  1  0.04085000  0.29151667  0.04180000  1.0
  Cl-  Cl138  1  0.54085000  0.79151667  0.04180000  1.0
  Cl-  Cl139  1  0.04085000  0.79151667  0.04180000  1.0
  Cl-  Cl140  1  0.70915000  0.29181667  0.54180000  1.0
  Cl-  Cl141  1  0.20915000  0.29181667  0.54180000  1.0
  Cl-  Cl142  1  0.70915000  0.79181667  0.54180000  1.0
  Cl-  Cl143  1  0.20915000  0.79181667  0.54180000  1.0
  Cl-  Cl144  1  0.62500000  0.29686667  0.29520000  1.0
  Cl-  Cl145  1  0.12500000  0.29686667  0.29520000  1.0
  Cl-  Cl146  1  0.62500000  0.79686667  0.29520000  1.0
  Cl-  Cl147  1  0.12500000  0.79686667  0.29520000  1.0
  Cl-  Cl148  1  0.62500000  0.28646667  0.79520000  1.0
  Cl-  Cl149  1  0.12500000  0.28646667  0.79520000  1.0
  Cl-  Cl150  1  0.62500000  0.78646667  0.79520000  1.0
  Cl-  Cl151  1  0.12500000  0.78646667  0.79520000  1.0
  Cl-  Cl152  1  0.87500000  0.53646667  0.70480000  1.0
  Cl-  Cl153  1  0.37500000  0.53646667  0.70480000  1.0
  Cl-  Cl154  1  0.87500000  0.03646667  0.70480000  1.0
  Cl-  Cl155  1  0.37500000  0.03646667  0.70480000  1.0
  Cl-  Cl156  1  0.87500000  0.54686667  0.20480000  1.0
  Cl-  Cl157  1  0.37500000  0.54686667  0.20480000  1.0
  Cl-  Cl158  1  0.87500000  0.04686667  0.20480000  1.0
  Cl-  Cl159  1  0.37500000  0.04686667  0.20480000  1.0
