# generated using pymatgen
data_Li3YbCl6
_symmetry_space_group_name_H-M   'P 1'
_cell_length_a   12.05900000
_cell_length_b   22.26400000
_cell_length_c   12.86600000
_cell_angle_alpha   90.00000000
_cell_angle_beta   90.00000000
_cell_angle_gamma   90.00000000
_symmetry_Int_Tables_number   1
_chemical_formula_structural   Li3YbCl6
_chemical_formula_sum   'Li48 Yb16 Cl96'
_cell_volume   3454.28395682
_cell_formula_units_Z   16
loop_
 _symmetry_equiv_pos_site_id
 _symmetry_equiv_pos_as_xyz
  1  'x, y, z'
loop_
 _atom_type_symbol
 _atom_type_oxidation_number
  Li+  1.0
  Yb3+  3.0
  Cl-  -1.0
loop_
 _atom_site_type_symbol
 _atom_site_label
 _atom_site_symmetry_multiplicity
 _atom_site_fract_x
 _atom_site_fract_y
 _atom_site_fract_z
 _atom_site_occupancy
  Li+  Li0  1  0.99695000  0.20430000  0.63680000  1.0
  Li+  Li0  1  0.99695000  0.70430000  0.63680000  1.0
  Li+  Li1  1  0.75305000  0.04570000  0.13680000  1.0
  Li+  Li1  1  0.75305000  0.54570000  0.13680000  1.0
  Li+  Li2  1  0.00305000  0.45430000  0.36320000  1.0
  Li+  Li2  1  0.00305000  0.95430000  0.36320000  1.0
  Li+  Li3  1  0.74695000  0.29570000  0.86320000  1.0
  Li+  Li3  1  0.74695000  0.79570000  0.86320000  1.0
  Li+  Li4  1  0.50305000  0.29570000  0.36320000  1.0
  Li+  Li4  1  0.50305000  0.79570000  0.36320000  1.0
  Li+  Li5  1  0.24695000  0.45430000  0.86320000  1.0
  Li+  Li5  1  0.24695000  0.95430000  0.86320000  1.0
  Li+  Li6  1  0.99695000  0.04570000  0.63680000  1.0
  Li+  Li6  1  0.99695000  0.54570000  0.63680000  1.0
  Li+  Li7  1  0.75305000  0.20430000  0.13680000  1.0
  Li+  Li7  1  0.75305000  0.70430000  0.13680000  1.0
  Li+  Li8  1  0.49715000  0.28830000  0.88320000  1.0
  Li+  Li8  1  0.49715000  0.78830000  0.88320000  1.0
  Li+  Li9  1  0.99715000  0.28830000  0.88320000  1.0
  Li+  Li9  1  0.99715000  0.78830000  0.88320000  1.0
  Li+  Li10  1  0.25285000  0.46170000  0.38320000  1.0
  Li+  Li10  1  0.25285000  0.96170000  0.38320000  1.0
  Li+  Li11  1  0.75285000  0.46170000  0.38320000  1.0
  Li+  Li11  1  0.75285000  0.96170000  0.38320000  1.0
  Li+  Li12  1  0.00285000  0.03830000  0.11680000  1.0
  Li+  Li12  1  0.00285000  0.53830000  0.11680000  1.0
  Li+  Li13  1  0.50285000  0.03830000  0.11680000  1.0
  Li+  Li13  1  0.50285000  0.53830000  0.11680000  1.0
  Li+  Li14  1  0.24715000  0.21170000  0.61680000  1.0
  Li+  Li14  1  0.24715000  0.71170000  0.61680000  1.0
  Li+  Li15  1  0.74715000  0.21170000  0.61680000  1.0
  Li+  Li15  1  0.74715000  0.71170000  0.61680000  1.0
  Li+  Li16  1  0.00285000  0.21170000  0.11680000  1.0
  Li+  Li16  1  0.00285000  0.71170000  0.11680000  1.0
  Li+  Li17  1  0.50285000  0.21170000  0.11680000  1.0
  Li+  Li17  1  0.50285000  0.71170000  0.11680000  1.0
  Li+  Li18  1  0.24715000  0.03830000  0.61680000  1.0
  Li+  Li18  1  0.24715000  0.53830000  0.61680000  1.0
  Li+  Li19  1  0.74715000  0.03830000  0.61680000  1.0
  Li+  Li19  1  0.74715000  0.53830000  0.61680000  1.0
  Li+  Li20  1  0.49715000  0.46170000  0.88320000  1.0
  Li+  Li20  1  0.49715000  0.96170000  0.88320000  1.0
  Li+  Li21  1  0.99715000  0.46170000  0.88320000  1.0
  Li+  Li21  1  0.99715000  0.96170000  0.88320000  1.0
  Li+  Li22  1  0.25285000  0.28830000  0.38320000  1.0
  Li+  Li22  1  0.25285000  0.78830000  0.38320000  1.0
  Li+  Li23  1  0.75285000  0.28830000  0.38320000  1.0
  Li+  Li23  1  0.75285000  0.78830000  0.38320000  1.0
  Yb3+  Yb1  1  0.25535000  0.37500000  0.12440000  1.0
  Yb3+  Yb1  1  0.25535000  0.87500000  0.12440000  1.0
  Yb3+  Yb1  1  0.75535000  0.37500000  0.12440000  1.0
  Yb3+  Yb1  1  0.75535000  0.87500000  0.12440000  1.0
  Yb3+  Yb1  1  0.49465000  0.37500000  0.62440000  1.0
  Yb3+  Yb1  1  0.49465000  0.87500000  0.62440000  1.0
  Yb3+  Yb1  1  0.99465000  0.37500000  0.62440000  1.0
  Yb3+  Yb1  1  0.99465000  0.87500000  0.62440000  1.0
  Yb3+  Yb1  1  0.24465000  0.12500000  0.87560000  1.0
  Yb3+  Yb1  1  0.24465000  0.62500000  0.87560000  1.0
  Yb3+  Yb1  1  0.74465000  0.12500000  0.87560000  1.0
  Yb3+  Yb1  1  0.74465000  0.62500000  0.87560000  1.0
  Yb3+  Yb1  1  0.00535000  0.12500000  0.37560000  1.0
  Yb3+  Yb1  1  0.00535000  0.62500000  0.37560000  1.0
  Yb3+  Yb1  1  0.50535000  0.12500000  0.37560000  1.0
  Yb3+  Yb1  1  0.50535000  0.62500000  0.37560000  1.0
  Cl-  Cl1  1  0.11360000  0.29070000  0.70920000  1.0
  Cl-  Cl1  1  0.11360000  0.79070000  0.70920000  1.0
  Cl-  Cl1  1  0.61360000  0.29070000  0.70920000  1.0
  Cl-  Cl1  1  0.61360000  0.79070000  0.70920000  1.0
  Cl-  Cl1  1  0.13640000  0.45930000  0.20920000  1.0
  Cl-  Cl1  1  0.13640000  0.95930000  0.20920000  1.0
  Cl-  Cl1  1  0.63640000  0.45930000  0.20920000  1.0
  Cl-  Cl1  1  0.63640000  0.95930000  0.20920000  1.0
  Cl-  Cl1  1  0.38640000  0.04070000  0.29080000  1.0
  Cl-  Cl1  1  0.38640000  0.54070000  0.29080000  1.0
  Cl-  Cl1  1  0.88640000  0.04070000  0.29080000  1.0
  Cl-  Cl1  1  0.88640000  0.54070000  0.29080000  1.0
  Cl-  Cl1  1  0.36360000  0.20930000  0.79080000  1.0
  Cl-  Cl1  1  0.36360000  0.70930000  0.79080000  1.0
  Cl-  Cl1  1  0.86360000  0.20930000  0.79080000  1.0
  Cl-  Cl1  1  0.86360000  0.70930000  0.79080000  1.0
  Cl-  Cl1  1  0.38640000  0.20930000  0.29080000  1.0
  Cl-  Cl1  1  0.38640000  0.70930000  0.29080000  1.0
  Cl-  Cl1  1  0.88640000  0.20930000  0.29080000  1.0
  Cl-  Cl1  1  0.88640000  0.70930000  0.29080000  1.0
  Cl-  Cl1  1  0.36360000  0.04070000  0.79080000  1.0
  Cl-  Cl1  1  0.36360000  0.54070000  0.79080000  1.0
  Cl-  Cl1  1  0.86360000  0.04070000  0.79080000  1.0
  Cl-  Cl1  1  0.86360000  0.54070000  0.79080000  1.0
  Cl-  Cl1  1  0.11360000  0.45930000  0.70920000  1.0
  Cl-  Cl1  1  0.11360000  0.95930000  0.70920000  1.0
  Cl-  Cl1  1  0.61360000  0.45930000  0.70920000  1.0
  Cl-  Cl1  1  0.61360000  0.95930000  0.70920000  1.0
  Cl-  Cl1  1  0.13640000  0.29070000  0.20920000  1.0
  Cl-  Cl1  1  0.13640000  0.79070000  0.20920000  1.0
  Cl-  Cl1  1  0.63640000  0.29070000  0.20920000  1.0
  Cl-  Cl1  1  0.63640000  0.79070000  0.20920000  1.0
  Cl-  Cl2  1  0.36435000  0.12500000  0.04320000  1.0
  Cl-  Cl2  1  0.36435000  0.62500000  0.04320000  1.0
  Cl-  Cl2  1  0.86435000  0.12500000  0.04320000  1.0
  Cl-  Cl2  1  0.86435000  0.62500000  0.04320000  1.0
  Cl-  Cl2  1  0.38565000  0.12500000  0.54320000  1.0
  Cl-  Cl2  1  0.38565000  0.62500000  0.54320000  1.0
  Cl-  Cl2  1  0.88565000  0.12500000  0.54320000  1.0
  Cl-  Cl2  1  0.88565000  0.62500000  0.54320000  1.0
  Cl-  Cl2  1  0.13565000  0.37500000  0.95680000  1.0
  Cl-  Cl2  1  0.13565000  0.87500000  0.95680000  1.0
  Cl-  Cl2  1  0.63565000  0.37500000  0.95680000  1.0
  Cl-  Cl2  1  0.63565000  0.87500000  0.95680000  1.0
  Cl-  Cl2  1  0.11435000  0.37500000  0.45680000  1.0
  Cl-  Cl2  1  0.11435000  0.87500000  0.45680000  1.0
  Cl-  Cl2  1  0.61435000  0.37500000  0.45680000  1.0
  Cl-  Cl2  1  0.61435000  0.87500000  0.45680000  1.0
  Cl-  Cl3  1  0.37515000  0.29085000  0.04180000  1.0
  Cl-  Cl3  1  0.37515000  0.79085000  0.04180000  1.0
  Cl-  Cl3  1  0.87515000  0.29085000  0.04180000  1.0
  Cl-  Cl3  1  0.87515000  0.79085000  0.04180000  1.0
  Cl-  Cl3  1  0.37485000  0.45915000  0.54180000  1.0
  Cl-  Cl3  1  0.37485000  0.95915000  0.54180000  1.0
  Cl-  Cl3  1  0.87485000  0.45915000  0.54180000  1.0
  Cl-  Cl3  1  0.87485000  0.95915000  0.54180000  1.0
  Cl-  Cl3  1  0.12485000  0.04085000  0.95820000  1.0
  Cl-  Cl3  1  0.12485000  0.54085000  0.95820000  1.0
  Cl-  Cl3  1  0.62485000  0.04085000  0.95820000  1.0
  Cl-  Cl3  1  0.62485000  0.54085000  0.95820000  1.0
  Cl-  Cl3  1  0.12515000  0.20915000  0.45820000  1.0
  Cl-  Cl3  1  0.12515000  0.70915000  0.45820000  1.0
  Cl-  Cl3  1  0.62515000  0.20915000  0.45820000  1.0
  Cl-  Cl3  1  0.62515000  0.70915000  0.45820000  1.0
  Cl-  Cl3  1  0.12485000  0.20915000  0.95820000  1.0
  Cl-  Cl3  1  0.12485000  0.70915000  0.95820000  1.0
  Cl-  Cl3  1  0.62485000  0.20915000  0.95820000  1.0
  Cl-  Cl3  1  0.62485000  0.70915000  0.95820000  1.0
  Cl-  Cl3  1  0.12515000  0.04085000  0.45820000  1.0
  Cl-  Cl3  1  0.12515000  0.54085000  0.45820000  1.0
  Cl-  Cl3  1  0.62515000  0.04085000  0.45820000  1.0
  Cl-  Cl3  1  0.62515000  0.54085000  0.45820000  1.0
  Cl-  Cl3  1  0.37515000  0.45915000  0.04180000  1.0
  Cl-  Cl3  1  0.37515000  0.95915000  0.04180000  1.0
  Cl-  Cl3  1  0.87515000  0.45915000  0.04180000  1.0
  Cl-  Cl3  1  0.87515000  0.95915000  0.04180000  1.0
  Cl-  Cl3  1  0.37485000  0.29085000  0.54180000  1.0
  Cl-  Cl3  1  0.37485000  0.79085000  0.54180000  1.0
  Cl-  Cl3  1  0.87485000  0.29085000  0.54180000  1.0
  Cl-  Cl3  1  0.87485000  0.79085000  0.54180000  1.0
  Cl-  Cl4  1  0.36980000  0.37500000  0.29520000  1.0
  Cl-  Cl4  1  0.36980000  0.87500000  0.29520000  1.0
  Cl-  Cl4  1  0.86980000  0.37500000  0.29520000  1.0
  Cl-  Cl4  1  0.86980000  0.87500000  0.29520000  1.0
  Cl-  Cl4  1  0.38020000  0.37500000  0.79520000  1.0
  Cl-  Cl4  1  0.38020000  0.87500000  0.79520000  1.0
  Cl-  Cl4  1  0.88020000  0.37500000  0.79520000  1.0
  Cl-  Cl4  1  0.88020000  0.87500000  0.79520000  1.0
  Cl-  Cl4  1  0.13020000  0.12500000  0.70480000  1.0
  Cl-  Cl4  1  0.13020000  0.62500000  0.70480000  1.0
  Cl-  Cl4  1  0.63020000  0.12500000  0.70480000  1.0
  Cl-  Cl4  1  0.63020000  0.62500000  0.70480000  1.0
  Cl-  Cl4  1  0.11980000  0.12500000  0.20480000  1.0
  Cl-  Cl4  1  0.11980000  0.62500000  0.20480000  1.0
  Cl-  Cl4  1  0.61980000  0.12500000  0.20480000  1.0
  Cl-  Cl4  1  0.61980000  0.62500000  0.20480000  1.0
