# generated using pymatgen
data_Li13SiP(S5Br)2
_symmetry_space_group_name_H-M   'P 1'
_cell_length_a   14.21581615
_cell_length_b   14.21581615
_cell_length_c   14.21581615
_cell_angle_alpha   60.00000000
_cell_angle_beta   60.00000000
_cell_angle_gamma   60.00000000
_symmetry_Int_Tables_number   1
_chemical_formula_structural   Li13SiP(S5Br)2
_chemical_formula_sum   'Li52 Si4 P4 S40 Br8'
_cell_volume   2031.42314730
_cell_formula_units_Z   4
loop_
 _symmetry_equiv_pos_site_id
 _symmetry_equiv_pos_as_xyz
  1  'x, y, z'
loop_
 _atom_type_symbol
 _atom_type_oxidation_number
  Li+  1.0
  Si4+  4.0
  P5+  5.0
  S2-  -2.0
  Br-  -1.0
loop_
 _atom_site_type_symbol
 _atom_site_label
 _atom_site_symmetry_multiplicity
 _atom_site_fract_x
 _atom_site_fract_y
 _atom_site_fract_z
 _atom_site_occupancy
  Li+  Li0  1  0.74150000  0.50850000  0.74150000  1.0
  Li+  Li1  1  0.00850000  0.24150000  0.24150000  1.0
  Li+  Li2  1  0.50850000  0.00850000  0.74150000  1.0
  Li+  Li3  1  0.50850000  0.50850000  0.74150000  1.0
  Li+  Li4  1  0.19390000  0.49900000  0.78100000  1.0
  Li+  Li5  1  0.69390000  0.49900000  0.28100000  1.0
  Li+  Li6  1  0.78100000  0.52610000  0.49900000  1.0
  Li+  Li7  1  0.78100000  0.52610000  0.99900000  1.0
  Li+  Li8  1  0.28100000  0.52610000  0.19390000  1.0
  Li+  Li9  1  0.52610000  0.49900000  0.28100000  1.0
  Li+  Li10  1  0.02610000  0.99900000  0.69390000  1.0
  Li+  Li11  1  0.52610000  0.49900000  0.19390000  1.0
  Li+  Li12  1  0.52610000  0.99900000  0.19390000  1.0
  Li+  Li13  1  0.49900000  0.02610000  0.28100000  1.0
  Li+  Li14  1  0.49900000  0.52610000  0.78100000  1.0
  Li+  Li15  1  0.99900000  0.52610000  0.28100000  1.0
  Li+  Li16  1  0.99900000  0.02610000  0.19390000  1.0
  Li+  Li17  1  0.99900000  0.52610000  0.69390000  1.0
  Li+  Li18  1  0.52610000  0.19390000  0.78100000  1.0
  Li+  Li19  1  0.02610000  0.19390000  0.99900000  1.0
  Li+  Li20  1  0.52610000  0.19390000  0.49900000  1.0
  Li+  Li21  1  0.52610000  0.19390000  0.99900000  1.0
  Li+  Li22  1  0.19390000  0.02610000  0.28100000  1.0
  Li+  Li23  1  0.19390000  0.02610000  0.78100000  1.0
  Li+  Li24  1  0.69390000  0.02610000  0.99900000  1.0
  Li+  Li25  1  0.28100000  0.49900000  0.02610000  1.0
  Li+  Li26  1  0.78100000  0.49900000  0.52610000  1.0
  Li+  Li27  1  0.78100000  0.99900000  0.52610000  1.0
  Li+  Li28  1  0.49900000  0.78100000  0.02610000  1.0
  Li+  Li29  1  0.78100000  0.49900000  0.19390000  1.0
  Li+  Li30  1  0.78100000  0.99900000  0.69390000  1.0
  Li+  Li31  1  0.49900000  0.28100000  0.19390000  1.0
  Li+  Li32  1  0.49900000  0.78100000  0.69390000  1.0
  Li+  Li33  1  0.99900000  0.28100000  0.19390000  1.0
  Li+  Li34  1  0.99900000  0.78100000  0.19390000  1.0
  Li+  Li35  1  0.99900000  0.78100000  0.69390000  1.0
  Li+  Li36  1  0.78100000  0.19390000  0.52610000  1.0
  Li+  Li37  1  0.78100000  0.69390000  0.02610000  1.0
  Li+  Li38  1  0.19390000  0.28100000  0.02610000  1.0
  Li+  Li39  1  0.69390000  0.78100000  0.02610000  1.0
  Li+  Li40  1  0.28100000  0.19390000  0.49900000  1.0
  Li+  Li41  1  0.28100000  0.69390000  0.49900000  1.0
  Li+  Li42  1  0.19390000  0.78100000  0.49900000  1.0
  Li+  Li43  1  0.19390000  0.78100000  0.99900000  1.0
  Li+  Li44  1  0.69390000  0.28100000  0.49900000  1.0
  Li+  Li45  1  0.49900000  0.69390000  0.52610000  1.0
  Li+  Li46  1  0.99900000  0.19390000  0.52610000  1.0
  Li+  Li47  1  0.99900000  0.69390000  0.02610000  1.0
  Li+  Li48  1  0.69390000  0.99900000  0.52610000  1.0
  Li+  Li49  1  0.49900000  0.19390000  0.78100000  1.0
  Li+  Li50  1  0.02610000  0.28100000  0.99900000  1.0
  Li+  Li51  1  0.52610000  0.28100000  0.99900000  1.0
  Si4+  Si52  1  0.25000000  0.25000000  0.25000000  1.0
  Si4+  Si53  1  0.25000000  0.25000000  0.75000000  1.0
  Si4+  Si54  1  0.25000000  0.75000000  0.25000000  1.0
  Si4+  Si55  1  0.75000000  0.75000000  0.25000000  1.0
  P5+  P56  1  0.25000000  0.75000000  0.75000000  1.0
  P5+  P57  1  0.75000000  0.25000000  0.25000000  1.0
  P5+  P58  1  0.75000000  0.25000000  0.75000000  1.0
  P5+  P59  1  0.75000000  0.75000000  0.75000000  1.0
  S2-  S1  1  0.31080000  0.06760000  0.31080000  1.0
  S2-  S1  1  0.31080000  0.06760000  0.81080000  1.0
  S2-  S1  1  0.31080000  0.56760000  0.31080000  1.0
  S2-  S1  1  0.31080000  0.56760000  0.81080000  1.0
  S2-  S1  1  0.81080000  0.06760000  0.31080000  1.0
  S2-  S1  1  0.81080000  0.06760000  0.81080000  1.0
  S2-  S1  1  0.81080000  0.56760000  0.31080000  1.0
  S2-  S1  1  0.81080000  0.56760000  0.81080000  1.0
  S2-  S1  1  0.31080000  0.31080000  0.31080000  1.0
  S2-  S1  1  0.31080000  0.31080000  0.81080000  1.0
  S2-  S1  1  0.31080000  0.81080000  0.31080000  1.0
  S2-  S1  1  0.31080000  0.81080000  0.81080000  1.0
  S2-  S1  1  0.81080000  0.31080000  0.31080000  1.0
  S2-  S1  1  0.81080000  0.31080000  0.81080000  1.0
  S2-  S1  1  0.81080000  0.81080000  0.31080000  1.0
  S2-  S1  1  0.81080000  0.81080000  0.81080000  1.0
  S2-  S1  1  0.31080000  0.31080000  0.06760000  1.0
  S2-  S1  1  0.31080000  0.31080000  0.56760000  1.0
  S2-  S1  1  0.31080000  0.81080000  0.06760000  1.0
  S2-  S1  1  0.31080000  0.81080000  0.56760000  1.0
  S2-  S1  1  0.81080000  0.31080000  0.06760000  1.0
  S2-  S1  1  0.81080000  0.31080000  0.56760000  1.0
  S2-  S1  1  0.81080000  0.81080000  0.06760000  1.0
  S2-  S1  1  0.81080000  0.81080000  0.56760000  1.0
  S2-  S1  1  0.06760000  0.31080000  0.31080000  1.0
  S2-  S1  1  0.06760000  0.31080000  0.81080000  1.0
  S2-  S1  1  0.06760000  0.81080000  0.31080000  1.0
  S2-  S1  1  0.06760000  0.81080000  0.81080000  1.0
  S2-  S1  1  0.56760000  0.31080000  0.31080000  1.0
  S2-  S1  1  0.56760000  0.31080000  0.81080000  1.0
  S2-  S1  1  0.56760000  0.81080000  0.31080000  1.0
  S2-  S1  1  0.56760000  0.81080000  0.81080000  1.0
  S2-  S92  1  0.50000000  0.00000000  0.50000000  1.0
  S2-  S93  1  0.37500000  0.37500000  0.37500000  1.0
  S2-  S94  1  0.37500000  0.37500000  0.87500000  1.0
  S2-  S95  1  0.37500000  0.87500000  0.87500000  1.0
  S2-  S96  1  0.87500000  0.37500000  0.37500000  1.0
  S2-  S97  1  0.87500000  0.37500000  0.87500000  1.0
  S2-  S98  1  0.87500000  0.87500000  0.37500000  1.0
  S2-  S99  1  0.87500000  0.87500000  0.87500000  1.0
  Br-  Br100  1  0.00000000  0.00000000  0.00000000  1.0
  Br-  Br101  1  0.00000000  0.00000000  0.50000000  1.0
  Br-  Br102  1  0.00000000  0.50000000  0.00000000  1.0
  Br-  Br103  1  0.00000000  0.50000000  0.50000000  1.0
  Br-  Br104  1  0.50000000  0.00000000  0.00000000  1.0
  Br-  Br105  1  0.50000000  0.50000000  0.00000000  1.0
  Br-  Br106  1  0.50000000  0.50000000  0.50000000  1.0
  Br-  Br107  1  0.37500000  0.87500000  0.37500000  1.0
