# generated using pymatgen
data_Li2ZrO3
_symmetry_space_group_name_H-M   'P 1'
_cell_length_a   21.05313204
_cell_length_b   10.52656602
_cell_length_c   10.83120000
_cell_angle_alpha   101.41174236
_cell_angle_beta   101.41174236
_cell_angle_gamma   118.06707286
_symmetry_Int_Tables_number   1
_chemical_formula_structural   Li2ZrO3
_chemical_formula_sum   'Li64 Zr32 O96'
_cell_volume   1955.22835582
_cell_formula_units_Z   32
loop_
 _symmetry_equiv_pos_site_id
 _symmetry_equiv_pos_as_xyz
  1  'x, y, z'
loop_
 _atom_type_symbol
 _atom_type_oxidation_number
  Li+  1.0
  Zr4+  4.0
  O2-  -2.0
loop_
 _atom_site_type_symbol
 _atom_site_label
 _atom_site_symmetry_multiplicity
 _atom_site_fract_x
 _atom_site_fract_y
 _atom_site_fract_z
 _atom_site_occupancy
  Li+  Li1  1  0.10352500  0.29295000  0.12500000  1.0
  Li+  Li1  1  0.60352500  0.29295000  0.12500000  1.0
  Li+  Li1  1  0.10352500  0.29295000  0.62500000  1.0
  Li+  Li1  1  0.60352500  0.29295000  0.62500000  1.0
  Li+  Li1  1  0.10352500  0.79295000  0.12500000  1.0
  Li+  Li1  1  0.60352500  0.79295000  0.12500000  1.0
  Li+  Li1  1  0.10352500  0.79295000  0.62500000  1.0
  Li+  Li1  1  0.60352500  0.79295000  0.62500000  1.0
  Li+  Li1  1  0.35352500  0.29295000  0.12500000  1.0
  Li+  Li1  1  0.85352500  0.29295000  0.12500000  1.0
  Li+  Li1  1  0.35352500  0.29295000  0.62500000  1.0
  Li+  Li1  1  0.85352500  0.29295000  0.62500000  1.0
  Li+  Li1  1  0.35352500  0.79295000  0.12500000  1.0
  Li+  Li1  1  0.85352500  0.79295000  0.12500000  1.0
  Li+  Li1  1  0.35352500  0.79295000  0.62500000  1.0
  Li+  Li1  1  0.85352500  0.79295000  0.62500000  1.0
  Li+  Li1  1  0.14647500  0.20705000  0.37500000  1.0
  Li+  Li1  1  0.64647500  0.20705000  0.37500000  1.0
  Li+  Li1  1  0.14647500  0.20705000  0.87500000  1.0
  Li+  Li1  1  0.64647500  0.20705000  0.87500000  1.0
  Li+  Li1  1  0.14647500  0.70705000  0.37500000  1.0
  Li+  Li1  1  0.64647500  0.70705000  0.37500000  1.0
  Li+  Li1  1  0.14647500  0.70705000  0.87500000  1.0
  Li+  Li1  1  0.64647500  0.70705000  0.87500000  1.0
  Li+  Li1  1  0.39647500  0.20705000  0.37500000  1.0
  Li+  Li1  1  0.89647500  0.20705000  0.37500000  1.0
  Li+  Li1  1  0.39647500  0.20705000  0.87500000  1.0
  Li+  Li1  1  0.89647500  0.20705000  0.87500000  1.0
  Li+  Li1  1  0.39647500  0.70705000  0.37500000  1.0
  Li+  Li1  1  0.89647500  0.70705000  0.37500000  1.0
  Li+  Li1  1  0.39647500  0.70705000  0.87500000  1.0
  Li+  Li1  1  0.89647500  0.70705000  0.87500000  1.0
  Li+  Li2  1  0.18402500  0.13195000  0.12500000  1.0
  Li+  Li2  1  0.68402500  0.13195000  0.12500000  1.0
  Li+  Li2  1  0.18402500  0.13195000  0.62500000  1.0
  Li+  Li2  1  0.68402500  0.13195000  0.62500000  1.0
  Li+  Li2  1  0.18402500  0.63195000  0.12500000  1.0
  Li+  Li2  1  0.68402500  0.63195000  0.12500000  1.0
  Li+  Li2  1  0.18402500  0.63195000  0.62500000  1.0
  Li+  Li2  1  0.68402500  0.63195000  0.62500000  1.0
  Li+  Li2  1  0.43402500  0.13195000  0.12500000  1.0
  Li+  Li2  1  0.93402500  0.13195000  0.12500000  1.0
  Li+  Li2  1  0.43402500  0.13195000  0.62500000  1.0
  Li+  Li2  1  0.93402500  0.13195000  0.62500000  1.0
  Li+  Li2  1  0.43402500  0.63195000  0.12500000  1.0
  Li+  Li2  1  0.93402500  0.63195000  0.12500000  1.0
  Li+  Li2  1  0.43402500  0.63195000  0.62500000  1.0
  Li+  Li2  1  0.93402500  0.63195000  0.62500000  1.0
  Li+  Li2  1  0.06597500  0.36805000  0.37500000  1.0
  Li+  Li2  1  0.56597500  0.36805000  0.37500000  1.0
  Li+  Li2  1  0.06597500  0.36805000  0.87500000  1.0
  Li+  Li2  1  0.56597500  0.36805000  0.87500000  1.0
  Li+  Li2  1  0.06597500  0.86805000  0.37500000  1.0
  Li+  Li2  1  0.56597500  0.86805000  0.37500000  1.0
  Li+  Li2  1  0.06597500  0.86805000  0.87500000  1.0
  Li+  Li2  1  0.56597500  0.86805000  0.87500000  1.0
  Li+  Li2  1  0.31597500  0.36805000  0.37500000  1.0
  Li+  Li2  1  0.81597500  0.36805000  0.37500000  1.0
  Li+  Li2  1  0.31597500  0.36805000  0.87500000  1.0
  Li+  Li2  1  0.81597500  0.36805000  0.87500000  1.0
  Li+  Li2  1  0.31597500  0.86805000  0.37500000  1.0
  Li+  Li2  1  0.81597500  0.86805000  0.37500000  1.0
  Li+  Li2  1  0.31597500  0.86805000  0.87500000  1.0
  Li+  Li2  1  0.81597500  0.86805000  0.87500000  1.0
  Zr4+  Zr1  1  0.02295000  0.45410000  0.12500000  1.0
  Zr4+  Zr1  1  0.52295000  0.45410000  0.12500000  1.0
  Zr4+  Zr1  1  0.02295000  0.45410000  0.62500000  1.0
  Zr4+  Zr1  1  0.52295000  0.45410000  0.62500000  1.0
  Zr4+  Zr1  1  0.02295000  0.95410000  0.12500000  1.0
  Zr4+  Zr1  1  0.52295000  0.95410000  0.12500000  1.0
  Zr4+  Zr1  1  0.02295000  0.95410000  0.62500000  1.0
  Zr4+  Zr1  1  0.52295000  0.95410000  0.62500000  1.0
  Zr4+  Zr1  1  0.27295000  0.45410000  0.12500000  1.0
  Zr4+  Zr1  1  0.77295000  0.45410000  0.12500000  1.0
  Zr4+  Zr1  1  0.27295000  0.45410000  0.62500000  1.0
  Zr4+  Zr1  1  0.77295000  0.45410000  0.62500000  1.0
  Zr4+  Zr1  1  0.27295000  0.95410000  0.12500000  1.0
  Zr4+  Zr1  1  0.77295000  0.95410000  0.12500000  1.0
  Zr4+  Zr1  1  0.27295000  0.95410000  0.62500000  1.0
  Zr4+  Zr1  1  0.77295000  0.95410000  0.62500000  1.0
  Zr4+  Zr1  1  0.22705000  0.04590000  0.37500000  1.0
  Zr4+  Zr1  1  0.72705000  0.04590000  0.37500000  1.0
  Zr4+  Zr1  1  0.22705000  0.04590000  0.87500000  1.0
  Zr4+  Zr1  1  0.72705000  0.04590000  0.87500000  1.0
  Zr4+  Zr1  1  0.22705000  0.54590000  0.37500000  1.0
  Zr4+  Zr1  1  0.72705000  0.54590000  0.37500000  1.0
  Zr4+  Zr1  1  0.22705000  0.54590000  0.87500000  1.0
  Zr4+  Zr1  1  0.72705000  0.54590000  0.87500000  1.0
  Zr4+  Zr1  1  0.47705000  0.04590000  0.37500000  1.0
  Zr4+  Zr1  1  0.97705000  0.04590000  0.37500000  1.0
  Zr4+  Zr1  1  0.47705000  0.04590000  0.87500000  1.0
  Zr4+  Zr1  1  0.97705000  0.04590000  0.87500000  1.0
  Zr4+  Zr1  1  0.47705000  0.54590000  0.37500000  1.0
  Zr4+  Zr1  1  0.97705000  0.54590000  0.37500000  1.0
  Zr4+  Zr1  1  0.47705000  0.54590000  0.87500000  1.0
  Zr4+  Zr1  1  0.97705000  0.54590000  0.87500000  1.0
  O2-  O1  1  0.25000000  0.25000000  0.50000000  1.0
  O2-  O1  1  0.75000000  0.25000000  0.50000000  1.0
  O2-  O1  1  0.25000000  0.25000000  0.00000000  1.0
  O2-  O1  1  0.75000000  0.25000000  0.00000000  1.0
  O2-  O1  1  0.25000000  0.75000000  0.50000000  1.0
  O2-  O1  1  0.75000000  0.75000000  0.50000000  1.0
  O2-  O1  1  0.25000000  0.75000000  0.00000000  1.0
  O2-  O1  1  0.75000000  0.75000000  0.00000000  1.0
  O2-  O1  1  0.00000000  0.25000000  0.50000000  1.0
  O2-  O1  1  0.50000000  0.25000000  0.50000000  1.0
  O2-  O1  1  0.00000000  0.25000000  0.00000000  1.0
  O2-  O1  1  0.50000000  0.25000000  0.00000000  1.0
  O2-  O1  1  0.00000000  0.75000000  0.50000000  1.0
  O2-  O1  1  0.50000000  0.75000000  0.50000000  1.0
  O2-  O1  1  0.00000000  0.75000000  0.00000000  1.0
  O2-  O1  1  0.50000000  0.75000000  0.00000000  1.0
  O2-  O1  1  0.12500000  0.50000000  0.25000000  1.0
  O2-  O1  1  0.62500000  0.50000000  0.25000000  1.0
  O2-  O1  1  0.12500000  0.50000000  0.75000000  1.0
  O2-  O1  1  0.62500000  0.50000000  0.75000000  1.0
  O2-  O1  1  0.12500000  0.00000000  0.25000000  1.0
  O2-  O1  1  0.62500000  0.00000000  0.25000000  1.0
  O2-  O1  1  0.12500000  0.00000000  0.75000000  1.0
  O2-  O1  1  0.62500000  0.00000000  0.75000000  1.0
  O2-  O1  1  0.37500000  0.50000000  0.25000000  1.0
  O2-  O1  1  0.87500000  0.50000000  0.25000000  1.0
  O2-  O1  1  0.37500000  0.50000000  0.75000000  1.0
  O2-  O1  1  0.87500000  0.50000000  0.75000000  1.0
  O2-  O1  1  0.37500000  0.00000000  0.25000000  1.0
  O2-  O1  1  0.87500000  0.00000000  0.25000000  1.0
  O2-  O1  1  0.37500000  0.00000000  0.75000000  1.0
  O2-  O1  1  0.87500000  0.00000000  0.75000000  1.0
  O2-  O2  1  0.07535000  0.07570000  0.00545000  1.0
  O2-  O2  1  0.57535000  0.07570000  0.00545000  1.0
  O2-  O2  1  0.07535000  0.07570000  0.50545000  1.0
  O2-  O2  1  0.57535000  0.07570000  0.50545000  1.0
  O2-  O2  1  0.07535000  0.57570000  0.00545000  1.0
  O2-  O2  1  0.57535000  0.57570000  0.00545000  1.0
  O2-  O2  1  0.07535000  0.57570000  0.50545000  1.0
  O2-  O2  1  0.57535000  0.57570000  0.50545000  1.0
  O2-  O2  1  0.32535000  0.07570000  0.00545000  1.0
  O2-  O2  1  0.82535000  0.07570000  0.00545000  1.0
  O2-  O2  1  0.32535000  0.07570000  0.50545000  1.0
  O2-  O2  1  0.82535000  0.07570000  0.50545000  1.0
  O2-  O2  1  0.32535000  0.57570000  0.00545000  1.0
  O2-  O2  1  0.82535000  0.57570000  0.00545000  1.0
  O2-  O2  1  0.32535000  0.57570000  0.50545000  1.0
  O2-  O2  1  0.82535000  0.57570000  0.50545000  1.0
  O2-  O2  1  0.21215000  0.34930000  0.24455000  1.0
  O2-  O2  1  0.71215000  0.34930000  0.24455000  1.0
  O2-  O2  1  0.21215000  0.34930000  0.74455000  1.0
  O2-  O2  1  0.71215000  0.34930000  0.74455000  1.0
  O2-  O2  1  0.21215000  0.84930000  0.24455000  1.0
  O2-  O2  1  0.71215000  0.84930000  0.24455000  1.0
  O2-  O2  1  0.21215000  0.84930000  0.74455000  1.0
  O2-  O2  1  0.71215000  0.84930000  0.74455000  1.0
  O2-  O2  1  0.46215000  0.34930000  0.24455000  1.0
  O2-  O2  1  0.96215000  0.34930000  0.24455000  1.0
  O2-  O2  1  0.46215000  0.34930000  0.74455000  1.0
  O2-  O2  1  0.96215000  0.34930000  0.74455000  1.0
  O2-  O2  1  0.46215000  0.84930000  0.24455000  1.0
  O2-  O2  1  0.96215000  0.84930000  0.24455000  1.0
  O2-  O2  1  0.46215000  0.84930000  0.74455000  1.0
  O2-  O2  1  0.96215000  0.84930000  0.74455000  1.0
  O2-  O2  1  0.17465000  0.42430000  0.49455000  1.0
  O2-  O2  1  0.67465000  0.42430000  0.49455000  1.0
  O2-  O2  1  0.17465000  0.42430000  0.99455000  1.0
  O2-  O2  1  0.67465000  0.42430000  0.99455000  1.0
  O2-  O2  1  0.17465000  0.92430000  0.49455000  1.0
  O2-  O2  1  0.67465000  0.92430000  0.49455000  1.0
  O2-  O2  1  0.17465000  0.92430000  0.99455000  1.0
  O2-  O2  1  0.67465000  0.92430000  0.99455000  1.0
  O2-  O2  1  0.42465000  0.42430000  0.49455000  1.0
  O2-  O2  1  0.92465000  0.42430000  0.49455000  1.0
  O2-  O2  1  0.42465000  0.42430000  0.99455000  1.0
  O2-  O2  1  0.92465000  0.42430000  0.99455000  1.0
  O2-  O2  1  0.42465000  0.92430000  0.49455000  1.0
  O2-  O2  1  0.92465000  0.92430000  0.49455000  1.0
  O2-  O2  1  0.42465000  0.92430000  0.99455000  1.0
  O2-  O2  1  0.92465000  0.92430000  0.99455000  1.0
  O2-  O2  1  0.03785000  0.15070000  0.25545000  1.0
  O2-  O2  1  0.53785000  0.15070000  0.25545000  1.0
  O2-  O2  1  0.03785000  0.15070000  0.75545000  1.0
  O2-  O2  1  0.53785000  0.15070000  0.75545000  1.0
  O2-  O2  1  0.03785000  0.65070000  0.25545000  1.0
  O2-  O2  1  0.53785000  0.65070000  0.25545000  1.0
  O2-  O2  1  0.03785000  0.65070000  0.75545000  1.0
  O2-  O2  1  0.53785000  0.65070000  0.75545000  1.0
  O2-  O2  1  0.28785000  0.15070000  0.25545000  1.0
  O2-  O2  1  0.78785000  0.15070000  0.25545000  1.0
  O2-  O2  1  0.28785000  0.15070000  0.75545000  1.0
  O2-  O2  1  0.78785000  0.15070000  0.75545000  1.0
  O2-  O2  1  0.28785000  0.65070000  0.25545000  1.0
  O2-  O2  1  0.78785000  0.65070000  0.25545000  1.0
  O2-  O2  1  0.28785000  0.65070000  0.75545000  1.0
  O2-  O2  1  0.78785000  0.65070000  0.75545000  1.0
