# generated using pymatgen
data_Li27P4S23Cl
_symmetry_space_group_name_H-M   'P 1'
_cell_length_a   14.00538117
_cell_length_b   14.00538117
_cell_length_c   14.00538117
_cell_angle_alpha   60.00000000
_cell_angle_beta   120.00000000
_cell_angle_gamma   120.00000000
_symmetry_Int_Tables_number   1
_chemical_formula_structural   Li27P4S23Cl
_chemical_formula_sum   'Li54 P8 S46 Cl2'
_cell_volume   1942.53924400
_cell_formula_units_Z   2
loop_
 _symmetry_equiv_pos_site_id
 _symmetry_equiv_pos_as_xyz
  1  'x, y, z'
loop_
 _atom_type_symbol
 _atom_type_oxidation_number
  Li+  1.0
  P5+  5.0
  S2-  -2.0
  Cl-  -1.0
loop_
 _atom_site_type_symbol
 _atom_site_label
 _atom_site_symmetry_multiplicity
 _atom_site_fract_x
 _atom_site_fract_y
 _atom_site_fract_z
 _atom_site_occupancy
  Li+  Li0  1  0.10700000  0.03450000  0.64300000  1.0
  Li+  Li1  1  0.10700000  0.53450000  0.14300000  1.0
  Li+  Li2  1  0.32050000  0.39300000  0.78450000  1.0
  Li+  Li3  1  0.82050000  0.89300000  0.28450000  1.0
  Li+  Li4  1  0.82050000  0.89300000  0.78450000  1.0
  Li+  Li5  1  0.46550000  0.39300000  0.42950000  1.0
  Li+  Li6  1  0.31997088  0.53598303  0.64515472  1.0
  Li+  Li7  1  0.31735159  0.03635743  0.14612671  1.0
  Li+  Li8  1  0.82050000  0.03450000  0.64300000  1.0
  Li+  Li9  1  0.31882384  0.39770357  0.14258695  1.0
  Li+  Li10  1  0.11014924  0.53371381  0.93139831  1.0
  Li+  Li11  1  0.10700000  0.03450000  0.92950000  1.0
  Li+  Li12  1  0.60700000  0.53450000  0.42950000  1.0
  Li+  Li13  1  0.60700000  0.53450000  0.92950000  1.0
  Li+  Li14  1  0.10700000  0.89300000  0.42950000  1.0
  Li+  Li15  1  0.10700000  0.39300000  0.42950000  1.0
  Li+  Li16  1  0.60700000  0.39300000  0.42950000  1.0
  Li+  Li17  1  0.60700000  0.39300000  0.92950000  1.0
  Li+  Li18  1  0.96550000  0.17950000  0.14300000  1.0
  Li+  Li19  1  0.10663890  0.17985391  0.78807222  1.0
  Li+  Li20  1  0.60700000  0.17950000  0.28450000  1.0
  Li+  Li21  1  0.60700000  0.67950000  0.78450000  1.0
  Li+  Li22  1  0.46550000  0.39300000  0.64300000  1.0
  Li+  Li23  1  0.46550000  0.89300000  0.14300000  1.0
  Li+  Li24  1  0.10700000  0.39300000  0.78450000  1.0
  Li+  Li25  1  0.10700000  0.17950000  0.14300000  1.0
  Li+  Li26  1  0.60727760  0.18014612  0.63966530  1.0
  Li+  Li27  1  0.60931180  0.68257981  0.14507673  1.0
  Li+  Li28  1  0.01221133  0.32409794  0.44021102  1.0
  Li+  Li29  1  0.51265892  0.82557076  0.44580292  1.0
  Li+  Li30  1  0.30737748  0.99003658  0.74166433  1.0
  Li+  Li31  1  0.30475000  0.48985000  0.23985000  1.0
  Li+  Li32  1  0.80475000  0.48985000  0.73985000  1.0
  Li+  Li33  1  0.80475000  0.48985000  0.23985000  1.0
  Li+  Li34  1  0.01015000  0.82505000  0.73985000  1.0
  Li+  Li35  1  0.50851866  0.82777125  0.73950302  1.0
  Li+  Li36  1  0.51015000  0.32505000  0.73985000  1.0
  Li+  Li37  1  0.51015000  0.32505000  0.23985000  1.0
  Li+  Li38  1  0.01015000  0.69525000  0.57505000  1.0
  Li+  Li39  1  0.00589715  0.19749947  0.57514884  1.0
  Li+  Li40  1  0.01015000  0.69525000  0.07505000  1.0
  Li+  Li41  1  0.51015000  0.69525000  0.07505000  1.0
  Li+  Li42  1  0.01015000  0.48985000  0.57505000  1.0
  Li+  Li43  1  0.01042258  0.98658799  0.07514877  1.0
  Li+  Li44  1  0.51015000  0.98985000  0.57505000  1.0
  Li+  Li45  1  0.51015000  0.48985000  0.07505000  1.0
  Li+  Li46  1  0.17495000  0.48985000  0.23985000  1.0
  Li+  Li47  1  0.67495000  0.48985000  0.73985000  1.0
  Li+  Li48  1  0.01020040  0.99407887  0.44558573  1.0
  Li+  Li49  1  0.17495000  0.48985000  0.44525000  1.0
  Li+  Li50  1  0.17495000  0.98985000  0.94525000  1.0
  Li+  Li51  1  0.17495000  0.48985000  0.94525000  1.0
  Li+  Li52  1  0.67495000  0.48985000  0.44525000  1.0
  Li+  Li53  1  0.67495000  0.48985000  0.94525000  1.0
  P5+  P54  1  0.25000000  0.75000000  0.50000000  1.0
  P5+  P55  1  0.25000000  0.25000000  0.50000000  1.0
  P5+  P56  1  0.25152526  0.75006908  0.99719836  1.0
  P5+  P57  1  0.25000000  0.25000000  0.00000000  1.0
  P5+  P58  1  0.75000000  0.75000000  0.50000000  1.0
  P5+  P59  1  0.75000000  0.25000000  0.50000000  1.0
  P5+  P60  1  0.75000000  0.75000000  0.00000000  1.0
  P5+  P61  1  0.74892918  0.24777379  0.00213429  1.0
  S2-  S62  1  0.30960000  0.69040000  0.67880000  1.0
  S2-  S63  1  0.30960000  0.19040000  0.67880000  1.0
  S2-  S64  1  0.30718142  0.69319047  0.17930989  1.0
  S2-  S65  1  0.30960000  0.19040000  0.17880000  1.0
  S2-  S66  1  0.80960000  0.69040000  0.67880000  1.0
  S2-  S67  1  0.80960000  0.19040000  0.67880000  1.0
  S2-  S68  1  0.81144192  0.69616268  0.18115668  1.0
  S2-  S69  1  0.80960000  0.19040000  0.17880000  1.0
  S2-  S70  1  0.30960000  0.69040000  0.44040000  1.0
  S2-  S71  1  0.30960000  0.19040000  0.44040000  1.0
  S2-  S72  1  0.30960000  0.69040000  0.94040000  1.0
  S2-  S73  1  0.30960000  0.19040000  0.94040000  1.0
  S2-  S74  1  0.80960000  0.69040000  0.44040000  1.0
  S2-  S75  1  0.80723070  0.18774824  0.43708320  1.0
  S2-  S76  1  0.80960000  0.69040000  0.94040000  1.0
  S2-  S77  1  0.80960000  0.19040000  0.94040000  1.0
  S2-  S78  1  0.30960000  0.92880000  0.44040000  1.0
  S2-  S79  1  0.30960000  0.42880000  0.44040000  1.0
  S2-  S80  1  0.30641030  0.92891290  0.93582167  1.0
  S2-  S81  1  0.30756965  0.42890715  0.94106190  1.0
  S2-  S82  1  0.80960000  0.92880000  0.44040000  1.0
  S2-  S83  1  0.81039782  0.42836097  0.44218591  1.0
  S2-  S84  1  0.80960000  0.92880000  0.94040000  1.0
  S2-  S85  1  0.80960000  0.42880000  0.94040000  1.0
  S2-  S86  1  0.07120000  0.69040000  0.44040000  1.0
  S2-  S87  1  0.07120000  0.19040000  0.44040000  1.0
  S2-  S88  1  0.07120000  0.69040000  0.94040000  1.0
  S2-  S89  1  0.06805967  0.19233854  0.94292526  1.0
  S2-  S90  1  0.57120000  0.69040000  0.44040000  1.0
  S2-  S91  1  0.57120000  0.19040000  0.44040000  1.0
  S2-  S92  1  0.57120000  0.69040000  0.94040000  1.0
  S2-  S93  1  0.57120000  0.19040000  0.94040000  1.0
  S2-  S94  1  0.00000000  0.00000000  0.75000000  1.0
  S2-  S95  1  0.00000000  0.50000000  0.75000000  1.0
  S2-  S96  1  0.00000000  0.50000000  0.25000000  1.0
  S2-  S97  1  0.50000000  0.00000000  0.75000000  1.0
  S2-  S98  1  0.50000000  0.50000000  0.75000000  1.0
  S2-  S99  1  0.50000000  0.00000000  0.25000000  1.0
  S2-  S100  1  0.50340528  0.49724030  0.25303348  1.0
  S2-  S101  1  0.12500000  0.87500000  0.62500000  1.0
  S2-  S102  1  0.12535375  0.37491355  0.62797022  1.0
  S2-  S103  1  0.12500000  0.87500000  0.12500000  1.0
  S2-  S104  1  0.12500000  0.37500000  0.12500000  1.0
  S2-  S105  1  0.62737728  0.37166216  0.62307677  1.0
  S2-  S106  1  0.62575334  0.87671798  0.12199648  1.0
  S2-  S107  1  0.62500000  0.37500000  0.12500000  1.0
  Cl-  Cl108  1  0.00000000  0.00000000  0.25000000  1.0
  Cl-  Cl109  1  0.62500000  0.87500000  0.62500000  1.0
