# generated using pymatgen
data_LiZnPS4
_symmetry_space_group_name_H-M   'P 1'
_cell_length_a   34.42800000
_cell_length_b   11.47600000
_cell_length_c   12.05440517
_cell_angle_alpha   118.42503735
_cell_angle_beta   118.42503735
_cell_angle_gamma   90.00000000
_symmetry_Int_Tables_number   1
_chemical_formula_structural   LiZnPS4
_chemical_formula_sum   'Li24 Zn24 P24 S96'
_cell_volume   3521.88331922
_cell_formula_units_Z   24
loop_
 _symmetry_equiv_pos_site_id
 _symmetry_equiv_pos_as_xyz
  1  'x, y, z'
loop_
 _atom_type_symbol
 _atom_type_oxidation_number
  Li+  1.0
  Zn2+  2.0
  P5+  5.0
  S2-  -2.0
loop_
 _atom_site_type_symbol
 _atom_site_label
 _atom_site_symmetry_multiplicity
 _atom_site_fract_x
 _atom_site_fract_y
 _atom_site_fract_z
 _atom_site_occupancy
  Li+  Li1  1  0.08333333  0.25000000  0.00000000  1.0
  Li+  Li1  1  0.41666667  0.25000000  0.00000000  1.0
  Li+  Li1  1  0.75000000  0.25000000  0.00000000  1.0
  Li+  Li1  1  0.08333333  0.25000000  0.50000000  1.0
  Li+  Li1  1  0.41666667  0.25000000  0.50000000  1.0
  Li+  Li1  1  0.75000000  0.25000000  0.50000000  1.0
  Li+  Li1  1  0.08333333  0.75000000  0.00000000  1.0
  Li+  Li1  1  0.41666667  0.75000000  0.00000000  1.0
  Li+  Li1  1  0.75000000  0.75000000  0.00000000  1.0
  Li+  Li1  1  0.08333333  0.75000000  0.50000000  1.0
  Li+  Li1  1  0.41666667  0.75000000  0.50000000  1.0
  Li+  Li1  1  0.75000000  0.75000000  0.50000000  1.0
  Li+  Li1  1  0.25000000  0.25000000  0.00000000  1.0
  Li+  Li1  1  0.58333333  0.25000000  0.00000000  1.0
  Li+  Li1  1  0.91666667  0.25000000  0.00000000  1.0
  Li+  Li1  1  0.25000000  0.25000000  0.50000000  1.0
  Li+  Li1  1  0.58333333  0.25000000  0.50000000  1.0
  Li+  Li1  1  0.91666667  0.25000000  0.50000000  1.0
  Li+  Li1  1  0.25000000  0.75000000  0.00000000  1.0
  Li+  Li1  1  0.58333333  0.75000000  0.00000000  1.0
  Li+  Li1  1  0.91666667  0.75000000  0.00000000  1.0
  Li+  Li1  1  0.25000000  0.75000000  0.50000000  1.0
  Li+  Li1  1  0.58333333  0.75000000  0.50000000  1.0
  Li+  Li1  1  0.91666667  0.75000000  0.50000000  1.0
  Zn2+  Zn1  1  0.00000000  0.00000000  0.00000000  1.0
  Zn2+  Zn1  1  0.33333333  0.00000000  0.00000000  1.0
  Zn2+  Zn1  1  0.66666667  0.00000000  0.00000000  1.0
  Zn2+  Zn1  1  0.00000000  0.00000000  0.50000000  1.0
  Zn2+  Zn1  1  0.33333333  0.00000000  0.50000000  1.0
  Zn2+  Zn1  1  0.66666667  0.00000000  0.50000000  1.0
  Zn2+  Zn1  1  0.00000000  0.50000000  0.00000000  1.0
  Zn2+  Zn1  1  0.33333333  0.50000000  0.00000000  1.0
  Zn2+  Zn1  1  0.66666667  0.50000000  0.00000000  1.0
  Zn2+  Zn1  1  0.00000000  0.50000000  0.50000000  1.0
  Zn2+  Zn1  1  0.33333333  0.50000000  0.50000000  1.0
  Zn2+  Zn1  1  0.66666667  0.50000000  0.50000000  1.0
  Zn2+  Zn1  1  0.16666667  0.00000000  0.00000000  1.0
  Zn2+  Zn1  1  0.50000000  0.00000000  0.00000000  1.0
  Zn2+  Zn1  1  0.83333333  0.00000000  0.00000000  1.0
  Zn2+  Zn1  1  0.16666667  0.00000000  0.50000000  1.0
  Zn2+  Zn1  1  0.50000000  0.00000000  0.50000000  1.0
  Zn2+  Zn1  1  0.83333333  0.00000000  0.50000000  1.0
  Zn2+  Zn1  1  0.16666667  0.50000000  0.00000000  1.0
  Zn2+  Zn1  1  0.50000000  0.50000000  0.00000000  1.0
  Zn2+  Zn1  1  0.83333333  0.50000000  0.00000000  1.0
  Zn2+  Zn1  1  0.16666667  0.50000000  0.50000000  1.0
  Zn2+  Zn1  1  0.50000000  0.50000000  0.50000000  1.0
  Zn2+  Zn1  1  0.83333333  0.50000000  0.50000000  1.0
  P5+  P1  1  0.04166667  0.37500000  0.25000000  1.0
  P5+  P1  1  0.37500000  0.37500000  0.25000000  1.0
  P5+  P1  1  0.70833333  0.37500000  0.25000000  1.0
  P5+  P1  1  0.04166667  0.37500000  0.75000000  1.0
  P5+  P1  1  0.37500000  0.37500000  0.75000000  1.0
  P5+  P1  1  0.70833333  0.37500000  0.75000000  1.0
  P5+  P1  1  0.04166667  0.87500000  0.25000000  1.0
  P5+  P1  1  0.37500000  0.87500000  0.25000000  1.0
  P5+  P1  1  0.70833333  0.87500000  0.25000000  1.0
  P5+  P1  1  0.04166667  0.87500000  0.75000000  1.0
  P5+  P1  1  0.37500000  0.87500000  0.75000000  1.0
  P5+  P1  1  0.70833333  0.87500000  0.75000000  1.0
  P5+  P1  1  0.20833333  0.37500000  0.25000000  1.0
  P5+  P1  1  0.54166667  0.37500000  0.25000000  1.0
  P5+  P1  1  0.87500000  0.37500000  0.25000000  1.0
  P5+  P1  1  0.20833333  0.37500000  0.75000000  1.0
  P5+  P1  1  0.54166667  0.37500000  0.75000000  1.0
  P5+  P1  1  0.87500000  0.37500000  0.75000000  1.0
  P5+  P1  1  0.20833333  0.87500000  0.25000000  1.0
  P5+  P1  1  0.54166667  0.87500000  0.25000000  1.0
  P5+  P1  1  0.87500000  0.87500000  0.25000000  1.0
  P5+  P1  1  0.20833333  0.87500000  0.75000000  1.0
  P5+  P1  1  0.54166667  0.87500000  0.75000000  1.0
  P5+  P1  1  0.87500000  0.87500000  0.75000000  1.0
  S2-  S1  1  0.09800000  0.32635000  0.36520000  1.0
  S2-  S1  1  0.43133333  0.32635000  0.36520000  1.0
  S2-  S1  1  0.76466667  0.32635000  0.36520000  1.0
  S2-  S1  1  0.09800000  0.32635000  0.86520000  1.0
  S2-  S1  1  0.43133333  0.32635000  0.86520000  1.0
  S2-  S1  1  0.76466667  0.32635000  0.86520000  1.0
  S2-  S1  1  0.09800000  0.82635000  0.36520000  1.0
  S2-  S1  1  0.43133333  0.82635000  0.36520000  1.0
  S2-  S1  1  0.76466667  0.82635000  0.36520000  1.0
  S2-  S1  1  0.09800000  0.82635000  0.86520000  1.0
  S2-  S1  1  0.43133333  0.82635000  0.86520000  1.0
  S2-  S1  1  0.76466667  0.82635000  0.86520000  1.0
  S2-  S1  1  0.26466667  0.32635000  0.36520000  1.0
  S2-  S1  1  0.59800000  0.32635000  0.36520000  1.0
  S2-  S1  1  0.93133333  0.32635000  0.36520000  1.0
  S2-  S1  1  0.26466667  0.32635000  0.86520000  1.0
  S2-  S1  1  0.59800000  0.32635000  0.86520000  1.0
  S2-  S1  1  0.93133333  0.32635000  0.86520000  1.0
  S2-  S1  1  0.26466667  0.82635000  0.36520000  1.0
  S2-  S1  1  0.59800000  0.82635000  0.36520000  1.0
  S2-  S1  1  0.93133333  0.82635000  0.36520000  1.0
  S2-  S1  1  0.26466667  0.82635000  0.86520000  1.0
  S2-  S1  1  0.59800000  0.82635000  0.86520000  1.0
  S2-  S1  1  0.93133333  0.82635000  0.86520000  1.0
  S2-  S1  1  0.02373333  0.03885000  0.36520000  1.0
  S2-  S1  1  0.35706667  0.03885000  0.36520000  1.0
  S2-  S1  1  0.69040000  0.03885000  0.36520000  1.0
  S2-  S1  1  0.02373333  0.03885000  0.86520000  1.0
  S2-  S1  1  0.35706667  0.03885000  0.86520000  1.0
  S2-  S1  1  0.69040000  0.03885000  0.86520000  1.0
  S2-  S1  1  0.02373333  0.53885000  0.36520000  1.0
  S2-  S1  1  0.35706667  0.53885000  0.36520000  1.0
  S2-  S1  1  0.69040000  0.53885000  0.36520000  1.0
  S2-  S1  1  0.02373333  0.53885000  0.86520000  1.0
  S2-  S1  1  0.35706667  0.53885000  0.86520000  1.0
  S2-  S1  1  0.69040000  0.53885000  0.86520000  1.0
  S2-  S1  1  0.19040000  0.03885000  0.36520000  1.0
  S2-  S1  1  0.52373333  0.03885000  0.36520000  1.0
  S2-  S1  1  0.85706667  0.03885000  0.36520000  1.0
  S2-  S1  1  0.19040000  0.03885000  0.86520000  1.0
  S2-  S1  1  0.52373333  0.03885000  0.86520000  1.0
  S2-  S1  1  0.85706667  0.03885000  0.86520000  1.0
  S2-  S1  1  0.19040000  0.53885000  0.36520000  1.0
  S2-  S1  1  0.52373333  0.53885000  0.36520000  1.0
  S2-  S1  1  0.85706667  0.53885000  0.36520000  1.0
  S2-  S1  1  0.19040000  0.53885000  0.86520000  1.0
  S2-  S1  1  0.52373333  0.53885000  0.86520000  1.0
  S2-  S1  1  0.85706667  0.53885000  0.86520000  1.0
  S2-  S1  1  0.05788333  0.42880000  0.13480000  1.0
  S2-  S1  1  0.39121667  0.42880000  0.13480000  1.0
  S2-  S1  1  0.72455000  0.42880000  0.13480000  1.0
  S2-  S1  1  0.05788333  0.42880000  0.63480000  1.0
  S2-  S1  1  0.39121667  0.42880000  0.63480000  1.0
  S2-  S1  1  0.72455000  0.42880000  0.63480000  1.0
  S2-  S1  1  0.05788333  0.92880000  0.13480000  1.0
  S2-  S1  1  0.39121667  0.92880000  0.13480000  1.0
  S2-  S1  1  0.72455000  0.92880000  0.13480000  1.0
  S2-  S1  1  0.05788333  0.92880000  0.63480000  1.0
  S2-  S1  1  0.39121667  0.92880000  0.63480000  1.0
  S2-  S1  1  0.72455000  0.92880000  0.63480000  1.0
  S2-  S1  1  0.22455000  0.42880000  0.13480000  1.0
  S2-  S1  1  0.55788333  0.42880000  0.13480000  1.0
  S2-  S1  1  0.89121667  0.42880000  0.13480000  1.0
  S2-  S1  1  0.22455000  0.42880000  0.63480000  1.0
  S2-  S1  1  0.55788333  0.42880000  0.63480000  1.0
  S2-  S1  1  0.89121667  0.42880000  0.63480000  1.0
  S2-  S1  1  0.22455000  0.92880000  0.13480000  1.0
  S2-  S1  1  0.55788333  0.92880000  0.13480000  1.0
  S2-  S1  1  0.89121667  0.92880000  0.13480000  1.0
  S2-  S1  1  0.22455000  0.92880000  0.63480000  1.0
  S2-  S1  1  0.55788333  0.92880000  0.63480000  1.0
  S2-  S1  1  0.89121667  0.92880000  0.63480000  1.0
  S2-  S1  1  0.15371667  0.20600000  0.13480000  1.0
  S2-  S1  1  0.48705000  0.20600000  0.13480000  1.0
  S2-  S1  1  0.82038333  0.20600000  0.13480000  1.0
  S2-  S1  1  0.15371667  0.20600000  0.63480000  1.0
  S2-  S1  1  0.48705000  0.20600000  0.63480000  1.0
  S2-  S1  1  0.82038333  0.20600000  0.63480000  1.0
  S2-  S1  1  0.15371667  0.70600000  0.13480000  1.0
  S2-  S1  1  0.48705000  0.70600000  0.13480000  1.0
  S2-  S1  1  0.82038333  0.70600000  0.13480000  1.0
  S2-  S1  1  0.15371667  0.70600000  0.63480000  1.0
  S2-  S1  1  0.48705000  0.70600000  0.63480000  1.0
  S2-  S1  1  0.82038333  0.70600000  0.63480000  1.0
  S2-  S1  1  0.32038333  0.20600000  0.13480000  1.0
  S2-  S1  1  0.65371667  0.20600000  0.13480000  1.0
  S2-  S1  1  0.98705000  0.20600000  0.13480000  1.0
  S2-  S1  1  0.32038333  0.20600000  0.63480000  1.0
  S2-  S1  1  0.65371667  0.20600000  0.63480000  1.0
  S2-  S1  1  0.98705000  0.20600000  0.63480000  1.0
  S2-  S1  1  0.32038333  0.70600000  0.13480000  1.0
  S2-  S1  1  0.65371667  0.70600000  0.13480000  1.0
  S2-  S1  1  0.98705000  0.70600000  0.13480000  1.0
  S2-  S1  1  0.32038333  0.70600000  0.63480000  1.0
  S2-  S1  1  0.65371667  0.70600000  0.63480000  1.0
  S2-  S1  1  0.98705000  0.70600000  0.63480000  1.0
