# generated using pymatgen
data_Li6SbPS8
_symmetry_space_group_name_H-M   'P 1'
_cell_length_a   23.77800000
_cell_length_b   13.58740000
_cell_length_c   12.62840000
_cell_angle_alpha   90.00000000
_cell_angle_beta   90.00000000
_cell_angle_gamma   90.00000000
_symmetry_Int_Tables_number   1
_chemical_formula_structural   Li6SbPS8
_chemical_formula_sum   'Li72 Sb12 P12 S96'
_cell_volume   4079.99859072
_cell_formula_units_Z   12
loop_
 _symmetry_equiv_pos_site_id
 _symmetry_equiv_pos_as_xyz
  1  'x, y, z'
loop_
 _atom_type_symbol
 _atom_type_oxidation_number
  Li+  1.0
  Sb5+  5.0
  P5+  5.0
  S2-  -2.0
loop_
 _atom_site_type_symbol
 _atom_site_label
 _atom_site_symmetry_multiplicity
 _atom_site_fract_x
 _atom_site_fract_y
 _atom_site_fract_z
 _atom_site_occupancy
  Li+  Li1  1  0.08526667  0.08900000  0.24900000  1.0
  Li+  Li1  1  0.41860000  0.08900000  0.24900000  1.0
  Li+  Li1  1  0.75193333  0.08900000  0.24900000  1.0
  Li+  Li1  1  0.08526667  0.08900000  0.74900000  1.0
  Li+  Li1  1  0.41860000  0.08900000  0.74900000  1.0
  Li+  Li1  1  0.75193333  0.08900000  0.74900000  1.0
  Li+  Li1  1  0.08526667  0.58900000  0.24900000  1.0
  Li+  Li1  1  0.41860000  0.58900000  0.24900000  1.0
  Li+  Li1  1  0.75193333  0.58900000  0.24900000  1.0
  Li+  Li1  1  0.08526667  0.58900000  0.74900000  1.0
  Li+  Li1  1  0.41860000  0.58900000  0.74900000  1.0
  Li+  Li1  1  0.75193333  0.58900000  0.74900000  1.0
  Li+  Li1  1  0.08140000  0.41100000  0.49900000  1.0
  Li+  Li1  1  0.41473333  0.41100000  0.49900000  1.0
  Li+  Li1  1  0.74806667  0.41100000  0.49900000  1.0
  Li+  Li1  1  0.08140000  0.41100000  0.99900000  1.0
  Li+  Li1  1  0.41473333  0.41100000  0.99900000  1.0
  Li+  Li1  1  0.74806667  0.41100000  0.99900000  1.0
  Li+  Li1  1  0.08140000  0.91100000  0.49900000  1.0
  Li+  Li1  1  0.41473333  0.91100000  0.49900000  1.0
  Li+  Li1  1  0.74806667  0.91100000  0.49900000  1.0
  Li+  Li1  1  0.08140000  0.91100000  0.99900000  1.0
  Li+  Li1  1  0.41473333  0.91100000  0.99900000  1.0
  Li+  Li1  1  0.74806667  0.91100000  0.99900000  1.0
  Li+  Li1  1  0.25193333  0.41100000  0.49900000  1.0
  Li+  Li1  1  0.58526667  0.41100000  0.49900000  1.0
  Li+  Li1  1  0.91860000  0.41100000  0.49900000  1.0
  Li+  Li1  1  0.25193333  0.41100000  0.99900000  1.0
  Li+  Li1  1  0.58526667  0.41100000  0.99900000  1.0
  Li+  Li1  1  0.91860000  0.41100000  0.99900000  1.0
  Li+  Li1  1  0.25193333  0.91100000  0.49900000  1.0
  Li+  Li1  1  0.58526667  0.91100000  0.49900000  1.0
  Li+  Li1  1  0.91860000  0.91100000  0.49900000  1.0
  Li+  Li1  1  0.25193333  0.91100000  0.99900000  1.0
  Li+  Li1  1  0.58526667  0.91100000  0.99900000  1.0
  Li+  Li1  1  0.91860000  0.91100000  0.99900000  1.0
  Li+  Li1  1  0.24806667  0.08900000  0.24900000  1.0
  Li+  Li1  1  0.58140000  0.08900000  0.24900000  1.0
  Li+  Li1  1  0.91473333  0.08900000  0.24900000  1.0
  Li+  Li1  1  0.24806667  0.08900000  0.74900000  1.0
  Li+  Li1  1  0.58140000  0.08900000  0.74900000  1.0
  Li+  Li1  1  0.91473333  0.08900000  0.74900000  1.0
  Li+  Li1  1  0.24806667  0.58900000  0.24900000  1.0
  Li+  Li1  1  0.58140000  0.58900000  0.24900000  1.0
  Li+  Li1  1  0.91473333  0.58900000  0.24900000  1.0
  Li+  Li1  1  0.24806667  0.58900000  0.74900000  1.0
  Li+  Li1  1  0.58140000  0.58900000  0.74900000  1.0
  Li+  Li1  1  0.91473333  0.58900000  0.74900000  1.0
  Li+  Li2  1  0.00000000  0.32800000  0.26450000  1.0
  Li+  Li2  1  0.33333333  0.32800000  0.26450000  1.0
  Li+  Li2  1  0.66666667  0.32800000  0.26450000  1.0
  Li+  Li2  1  0.00000000  0.32800000  0.76450000  1.0
  Li+  Li2  1  0.33333333  0.32800000  0.76450000  1.0
  Li+  Li2  1  0.66666667  0.32800000  0.76450000  1.0
  Li+  Li2  1  0.00000000  0.82800000  0.26450000  1.0
  Li+  Li2  1  0.33333333  0.82800000  0.26450000  1.0
  Li+  Li2  1  0.66666667  0.82800000  0.26450000  1.0
  Li+  Li2  1  0.00000000  0.82800000  0.76450000  1.0
  Li+  Li2  1  0.33333333  0.82800000  0.76450000  1.0
  Li+  Li2  1  0.66666667  0.82800000  0.76450000  1.0
  Li+  Li2  1  0.16666667  0.17200000  0.01450000  1.0
  Li+  Li2  1  0.50000000  0.17200000  0.01450000  1.0
  Li+  Li2  1  0.83333333  0.17200000  0.01450000  1.0
  Li+  Li2  1  0.16666667  0.17200000  0.51450000  1.0
  Li+  Li2  1  0.50000000  0.17200000  0.51450000  1.0
  Li+  Li2  1  0.83333333  0.17200000  0.51450000  1.0
  Li+  Li2  1  0.16666667  0.67200000  0.01450000  1.0
  Li+  Li2  1  0.50000000  0.67200000  0.01450000  1.0
  Li+  Li2  1  0.83333333  0.67200000  0.01450000  1.0
  Li+  Li2  1  0.16666667  0.67200000  0.51450000  1.0
  Li+  Li2  1  0.50000000  0.67200000  0.51450000  1.0
  Li+  Li2  1  0.83333333  0.67200000  0.51450000  1.0
  Sb5+  Sb24  1  0.00000000  0.16315000  0.50000000  1.0
  Sb5+  Sb24  1  0.33333333  0.16315000  0.50000000  1.0
  Sb5+  Sb24  1  0.66666667  0.16315000  0.50000000  1.0
  Sb5+  Sb25  1  0.00000000  0.66315000  0.50000000  1.0
  Sb5+  Sb25  1  0.33333333  0.66315000  0.50000000  1.0
  Sb5+  Sb25  1  0.66666667  0.66315000  0.50000000  1.0
  Sb5+  Sb26  1  0.16666667  0.83685000  0.25000000  1.0
  Sb5+  Sb26  1  0.50000000  0.83685000  0.25000000  1.0
  Sb5+  Sb26  1  0.83333333  0.83685000  0.25000000  1.0
  Sb5+  Sb27  1  0.16666667  0.83685000  0.75000000  1.0
  Sb5+  Sb27  1  0.50000000  0.83685000  0.75000000  1.0
  Sb5+  Sb27  1  0.83333333  0.83685000  0.75000000  1.0
  P5+  P28  1  0.00000000  0.16315000  0.00000000  1.0
  P5+  P28  1  0.33333333  0.16315000  0.00000000  1.0
  P5+  P28  1  0.66666667  0.16315000  0.00000000  1.0
  P5+  P29  1  0.00000000  0.66315000  0.00000000  1.0
  P5+  P29  1  0.33333333  0.66315000  0.00000000  1.0
  P5+  P29  1  0.66666667  0.66315000  0.00000000  1.0
  P5+  P30  1  0.16666667  0.33685000  0.25000000  1.0
  P5+  P30  1  0.50000000  0.33685000  0.25000000  1.0
  P5+  P30  1  0.83333333  0.33685000  0.25000000  1.0
  P5+  P31  1  0.16666667  0.33685000  0.75000000  1.0
  P5+  P31  1  0.50000000  0.33685000  0.75000000  1.0
  P5+  P31  1  0.83333333  0.33685000  0.75000000  1.0
  S2-  S1  1  0.07766667  0.08315000  0.06010000  1.0
  S2-  S1  1  0.41100000  0.08315000  0.06010000  1.0
  S2-  S1  1  0.74433333  0.08315000  0.06010000  1.0
  S2-  S1  1  0.07766667  0.08315000  0.56010000  1.0
  S2-  S1  1  0.41100000  0.08315000  0.56010000  1.0
  S2-  S1  1  0.74433333  0.08315000  0.56010000  1.0
  S2-  S1  1  0.07766667  0.58315000  0.06010000  1.0
  S2-  S1  1  0.41100000  0.58315000  0.06010000  1.0
  S2-  S1  1  0.74433333  0.58315000  0.06010000  1.0
  S2-  S1  1  0.07766667  0.58315000  0.56010000  1.0
  S2-  S1  1  0.41100000  0.58315000  0.56010000  1.0
  S2-  S1  1  0.74433333  0.58315000  0.56010000  1.0
  S2-  S1  1  0.08900000  0.41685000  0.31010000  1.0
  S2-  S1  1  0.42233333  0.41685000  0.31010000  1.0
  S2-  S1  1  0.75566667  0.41685000  0.31010000  1.0
  S2-  S1  1  0.08900000  0.41685000  0.81010000  1.0
  S2-  S1  1  0.42233333  0.41685000  0.81010000  1.0
  S2-  S1  1  0.75566667  0.41685000  0.81010000  1.0
  S2-  S1  1  0.08900000  0.91685000  0.31010000  1.0
  S2-  S1  1  0.42233333  0.91685000  0.31010000  1.0
  S2-  S1  1  0.75566667  0.91685000  0.31010000  1.0
  S2-  S1  1  0.08900000  0.91685000  0.81010000  1.0
  S2-  S1  1  0.42233333  0.91685000  0.81010000  1.0
  S2-  S1  1  0.75566667  0.91685000  0.81010000  1.0
  S2-  S1  1  0.24433333  0.41685000  0.31010000  1.0
  S2-  S1  1  0.57766667  0.41685000  0.31010000  1.0
  S2-  S1  1  0.91100000  0.41685000  0.31010000  1.0
  S2-  S1  1  0.24433333  0.41685000  0.81010000  1.0
  S2-  S1  1  0.57766667  0.41685000  0.81010000  1.0
  S2-  S1  1  0.91100000  0.41685000  0.81010000  1.0
  S2-  S1  1  0.24433333  0.91685000  0.31010000  1.0
  S2-  S1  1  0.57766667  0.91685000  0.31010000  1.0
  S2-  S1  1  0.91100000  0.91685000  0.31010000  1.0
  S2-  S1  1  0.24433333  0.91685000  0.81010000  1.0
  S2-  S1  1  0.57766667  0.91685000  0.81010000  1.0
  S2-  S1  1  0.91100000  0.91685000  0.81010000  1.0
  S2-  S1  1  0.25566667  0.08315000  0.06010000  1.0
  S2-  S1  1  0.58900000  0.08315000  0.06010000  1.0
  S2-  S1  1  0.92233333  0.08315000  0.06010000  1.0
  S2-  S1  1  0.25566667  0.08315000  0.56010000  1.0
  S2-  S1  1  0.58900000  0.08315000  0.56010000  1.0
  S2-  S1  1  0.92233333  0.08315000  0.56010000  1.0
  S2-  S1  1  0.25566667  0.58315000  0.06010000  1.0
  S2-  S1  1  0.58900000  0.58315000  0.06010000  1.0
  S2-  S1  1  0.92233333  0.58315000  0.06010000  1.0
  S2-  S1  1  0.25566667  0.58315000  0.56010000  1.0
  S2-  S1  1  0.58900000  0.58315000  0.56010000  1.0
  S2-  S1  1  0.92233333  0.58315000  0.56010000  1.0
  S2-  S2  1  0.00000000  0.31950000  0.05990000  1.0
  S2-  S2  1  0.33333333  0.31950000  0.05990000  1.0
  S2-  S2  1  0.66666667  0.31950000  0.05990000  1.0
  S2-  S2  1  0.00000000  0.31950000  0.55990000  1.0
  S2-  S2  1  0.33333333  0.31950000  0.55990000  1.0
  S2-  S2  1  0.66666667  0.31950000  0.55990000  1.0
  S2-  S2  1  0.00000000  0.81950000  0.05990000  1.0
  S2-  S2  1  0.33333333  0.81950000  0.05990000  1.0
  S2-  S2  1  0.66666667  0.81950000  0.05990000  1.0
  S2-  S2  1  0.00000000  0.81950000  0.55990000  1.0
  S2-  S2  1  0.33333333  0.81950000  0.55990000  1.0
  S2-  S2  1  0.66666667  0.81950000  0.55990000  1.0
  S2-  S2  1  0.16666667  0.18050000  0.30990000  1.0
  S2-  S2  1  0.50000000  0.18050000  0.30990000  1.0
  S2-  S2  1  0.83333333  0.18050000  0.30990000  1.0
  S2-  S2  1  0.16666667  0.18050000  0.80990000  1.0
  S2-  S2  1  0.50000000  0.18050000  0.80990000  1.0
  S2-  S2  1  0.83333333  0.18050000  0.80990000  1.0
  S2-  S2  1  0.16666667  0.68050000  0.30990000  1.0
  S2-  S2  1  0.50000000  0.68050000  0.30990000  1.0
  S2-  S2  1  0.83333333  0.68050000  0.30990000  1.0
  S2-  S2  1  0.16666667  0.68050000  0.80990000  1.0
  S2-  S2  1  0.50000000  0.68050000  0.80990000  1.0
  S2-  S2  1  0.83333333  0.68050000  0.80990000  1.0
  S2-  S3  1  0.00000000  0.15885000  0.32010000  1.0
  S2-  S3  1  0.33333333  0.15885000  0.32010000  1.0
  S2-  S3  1  0.66666667  0.15885000  0.32010000  1.0
  S2-  S3  1  0.00000000  0.15885000  0.82010000  1.0
  S2-  S3  1  0.33333333  0.15885000  0.82010000  1.0
  S2-  S3  1  0.66666667  0.15885000  0.82010000  1.0
  S2-  S3  1  0.00000000  0.65885000  0.32010000  1.0
  S2-  S3  1  0.33333333  0.65885000  0.32010000  1.0
  S2-  S3  1  0.66666667  0.65885000  0.32010000  1.0
  S2-  S3  1  0.00000000  0.65885000  0.82010000  1.0
  S2-  S3  1  0.33333333  0.65885000  0.82010000  1.0
  S2-  S3  1  0.66666667  0.65885000  0.82010000  1.0
  S2-  S3  1  0.16666667  0.34115000  0.07010000  1.0
  S2-  S3  1  0.50000000  0.34115000  0.07010000  1.0
  S2-  S3  1  0.83333333  0.34115000  0.07010000  1.0
  S2-  S3  1  0.16666667  0.34115000  0.57010000  1.0
  S2-  S3  1  0.50000000  0.34115000  0.57010000  1.0
  S2-  S3  1  0.83333333  0.34115000  0.57010000  1.0
  S2-  S3  1  0.16666667  0.84115000  0.07010000  1.0
  S2-  S3  1  0.50000000  0.84115000  0.07010000  1.0
  S2-  S3  1  0.83333333  0.84115000  0.07010000  1.0
  S2-  S3  1  0.16666667  0.84115000  0.57010000  1.0
  S2-  S3  1  0.50000000  0.84115000  0.57010000  1.0
  S2-  S3  1  0.83333333  0.84115000  0.57010000  1.0
