# generated using pymatgen
data_Li61SiP9(S5I)10
_symmetry_space_group_name_H-M   'P 1'
_cell_length_a   7.18299574
_cell_length_b   14.36599149
_cell_length_c   35.91497872
_cell_angle_alpha   60.00000000
_cell_angle_beta   120.00000000
_cell_angle_gamma   120.00000000
_symmetry_Int_Tables_number   1
_chemical_formula_structural   Li61SiP9(S5I)10
_chemical_formula_sum   'Li61 Si1 P9 S50 I10'
_cell_volume   2620.60659311
_cell_formula_units_Z   1
loop_
 _symmetry_equiv_pos_site_id
 _symmetry_equiv_pos_as_xyz
  1  'x, y, z'
loop_
 _atom_type_symbol
 _atom_type_oxidation_number
  Li+  1.0
  Si4+  4.0
  P5+  5.0
  S2-  -2.0
  I-  -1.0
loop_
 _atom_site_type_symbol
 _atom_site_label
 _atom_site_symmetry_multiplicity
 _atom_site_fract_x
 _atom_site_fract_y
 _atom_site_fract_z
 _atom_site_occupancy
  Li+  Li0  1  0.48050000  0.25975000  0.74610000  1.0
  Li+  Li1  1  0.48050000  0.75975000  0.34610000  1.0
  Li+  Li2  1  0.01950000  0.25975000  0.45390000  1.0
  Li+  Li3  1  0.01707649  0.76099595  0.05299375  1.0
  Li+  Li4  1  0.01950000  0.75975000  0.85390000  1.0
  Li+  Li5  1  0.01950000  0.25975000  0.85390000  1.0
  Li+  Li6  1  0.48050000  0.49025000  0.14610000  1.0
  Li+  Li7  1  0.01950000  0.25975000  0.74610000  1.0
  Li+  Li8  1  0.01950000  0.25975000  0.34610000  1.0
  Li+  Li9  1  0.01950000  0.25975000  0.94610000  1.0
  Li+  Li10  1  0.01950000  0.99025000  0.45390000  1.0
  Li+  Li11  1  0.01950000  0.49025000  0.45390000  1.0
  Li+  Li12  1  0.01950000  0.49025000  0.25390000  1.0
  Li+  Li13  1  0.01950000  0.49025000  0.85390000  1.0
  Li+  Li14  1  0.48050000  0.49025000  0.45390000  1.0
  Li+  Li15  1  0.40704000  0.70588000  0.74952800  1.0
  Li+  Li16  1  0.40704000  0.20588000  0.34952800  1.0
  Li+  Li17  1  0.00451787  0.79314434  0.23506701  1.0
  Li+  Li18  1  0.00236000  0.79648000  0.03235200  1.0
  Li+  Li19  1  0.00236000  0.29648000  0.03235200  1.0
  Li+  Li20  1  0.00236000  0.29648000  0.83235200  1.0
  Li+  Li21  1  0.58824000  0.99882000  0.54952800  1.0
  Li+  Li22  1  0.58346554  0.49949844  0.55253259  1.0
  Li+  Li23  1  0.58796063  0.99667509  0.94708841  1.0
  Li+  Li24  1  0.58824000  0.29648000  0.54952800  1.0
  Li+  Li25  1  0.58824000  0.29648000  0.14952800  1.0
  Li+  Li26  1  0.58824000  0.79648000  0.94952800  1.0
  Li+  Li27  1  0.58824000  0.29648000  0.94952800  1.0
  Li+  Li28  1  0.00236000  0.70588000  0.74952800  1.0
  Li+  Li29  1  0.00653605  0.20457473  0.55240597  1.0
  Li+  Li30  1  0.00236000  0.70588000  0.34952800  1.0
  Li+  Li31  1  0.00046169  0.79582738  0.75166215  1.0
  Li+  Li32  1  0.00236000  0.79648000  0.34952800  1.0
  Li+  Li33  1  0.00236000  0.79648000  0.14952800  1.0
  Li+  Li34  1  0.00236000  0.29648000  0.14952800  1.0
  Li+  Li35  1  0.00236000  0.70588000  0.66859200  1.0
  Li+  Li36  1  0.00236000  0.20588000  0.66859200  1.0
  Li+  Li37  1  0.00236000  0.70588000  0.46859200  1.0
  Li+  Li38  1  0.00236000  0.20588000  0.26859200  1.0
  Li+  Li39  1  0.00236000  0.99882000  0.66859200  1.0
  Li+  Li40  1  0.00236000  0.99882000  0.46859200  1.0
  Li+  Li41  1  0.00465893  0.99944953  0.07164296  1.0
  Li+  Li42  1  0.00236000  0.49882000  0.86859200  1.0
  Li+  Li43  1  0.40704000  0.99882000  0.74952800  1.0
  Li+  Li44  1  0.40704000  0.49882000  0.74952800  1.0
  Li+  Li45  1  0.40704000  0.99882000  0.54952800  1.0
  Li+  Li46  1  0.40812386  0.49637058  0.54954887  1.0
  Li+  Li47  1  0.40704000  0.99882000  0.94952800  1.0
  Li+  Li48  1  0.40704000  0.49882000  0.94952800  1.0
  Li+  Li49  1  0.00236000  0.99882000  0.63235200  1.0
  Li+  Li50  1  0.00236000  0.99882000  0.23235200  1.0
  Li+  Li51  1  0.00236000  0.49882000  0.03235200  1.0
  Li+  Li52  1  0.58824000  0.99882000  0.66859200  1.0
  Li+  Li53  1  0.58482140  0.49743102  0.46789580  1.0
  Li+  Li54  1  0.58824000  0.49882000  0.26859200  1.0
  Li+  Li55  1  0.58461921  0.99627158  0.06445179  1.0
  Li+  Li56  1  0.58579129  0.49669333  0.86852473  1.0
  Li+  Li57  1  0.40704000  0.49882000  0.43235200  1.0
  Li+  Li58  1  0.40704000  0.49882000  0.23235200  1.0
  Li+  Li59  1  0.40704000  0.99882000  0.83235200  1.0
  Li+  Li60  1  0.40704000  0.49882000  0.83235200  1.0
  Si4+  Si61  1  0.50000000  0.75000000  0.85000000  1.0
  P5+  P62  1  0.50000000  0.75000000  0.65000000  1.0
  P5+  P63  1  0.50000000  0.25000000  0.65000000  1.0
  P5+  P64  1  0.50672384  0.74997428  0.45087679  1.0
  P5+  P65  1  0.50000000  0.25000000  0.45000000  1.0
  P5+  P66  1  0.50000000  0.75000000  0.25000000  1.0
  P5+  P67  1  0.50000000  0.25000000  0.25000000  1.0
  P5+  P68  1  0.50000000  0.75000000  0.05000000  1.0
  P5+  P69  1  0.49639703  0.25133740  0.04939662  1.0
  P5+  P70  1  0.50000000  0.25000000  0.85000000  1.0
  S2-  S71  1  0.25000000  0.87500000  0.70000000  1.0
  S2-  S72  1  0.25000000  0.37500000  0.70000000  1.0
  S2-  S73  1  0.25000000  0.87500000  0.50000000  1.0
  S2-  S74  1  0.24847929  0.37635882  0.49664715  1.0
  S2-  S75  1  0.25000000  0.87500000  0.30000000  1.0
  S2-  S76  1  0.25000000  0.37500000  0.30000000  1.0
  S2-  S77  1  0.25000000  0.87500000  0.10000000  1.0
  S2-  S78  1  0.25000000  0.37500000  0.10000000  1.0
  S2-  S79  1  0.24908313  0.87326304  0.89836464  1.0
  S2-  S80  1  0.25000000  0.37500000  0.90000000  1.0
  S2-  S81  1  0.61618000  0.69191000  0.71970800  1.0
  S2-  S82  1  0.61618000  0.19191000  0.71970800  1.0
  S2-  S83  1  0.61618000  0.69191000  0.51970800  1.0
  S2-  S84  1  0.61618000  0.19191000  0.51970800  1.0
  S2-  S85  1  0.61837626  0.69077875  0.31947921  1.0
  S2-  S86  1  0.61618000  0.19191000  0.31970800  1.0
  S2-  S87  1  0.61618000  0.69191000  0.11970800  1.0
  S2-  S88  1  0.61618000  0.19191000  0.11970800  1.0
  S2-  S89  1  0.61618000  0.69191000  0.91970800  1.0
  S2-  S90  1  0.61782188  0.19210256  0.91666844  1.0
  S2-  S91  1  0.61618000  0.69191000  0.62676400  1.0
  S2-  S92  1  0.61618000  0.19191000  0.62676400  1.0
  S2-  S93  1  0.61831668  0.68872396  0.42859805  1.0
  S2-  S94  1  0.61618000  0.19191000  0.42676400  1.0
  S2-  S95  1  0.61419434  0.69097177  0.22572560  1.0
  S2-  S96  1  0.61618000  0.19191000  0.22676400  1.0
  S2-  S97  1  0.61618000  0.69191000  0.02676400  1.0
  S2-  S98  1  0.61618000  0.19191000  0.02676400  1.0
  S2-  S99  1  0.61536202  0.69064093  0.82958026  1.0
  S2-  S100  1  0.61407961  0.19472694  0.83037361  1.0
  S2-  S101  1  0.61618000  0.92427000  0.62676400  1.0
  S2-  S102  1  0.61800775  0.42749376  0.62643017  1.0
  S2-  S103  1  0.61759793  0.92395508  0.42735241  1.0
  S2-  S104  1  0.61618000  0.42427000  0.42676400  1.0
  S2-  S105  1  0.61618000  0.92427000  0.22676400  1.0
  S2-  S106  1  0.61618000  0.42427000  0.22676400  1.0
  S2-  S107  1  0.61653934  0.92268643  0.02463097  1.0
  S2-  S108  1  0.61585670  0.42501326  0.02602096  1.0
  S2-  S109  1  0.61618000  0.92427000  0.82676400  1.0
  S2-  S110  1  0.61618000  0.42427000  0.82676400  1.0
  S2-  S111  1  0.15241834  0.69143262  0.62736615  1.0
  S2-  S112  1  0.15297649  0.18782660  0.62818661  1.0
  S2-  S113  1  0.15146000  0.69191000  0.42676400  1.0
  S2-  S114  1  0.15146000  0.19191000  0.42676400  1.0
  S2-  S115  1  0.15146000  0.69191000  0.22676400  1.0
  S2-  S116  1  0.14899980  0.19538435  0.22694293  1.0
  S2-  S117  1  0.15146000  0.69191000  0.02676400  1.0
  S2-  S118  1  0.15146000  0.19191000  0.02676400  1.0
  S2-  S119  1  0.15146000  0.69191000  0.82676400  1.0
  S2-  S120  1  0.15146000  0.19191000  0.82676400  1.0
  I-  I121  1  0.99946637  0.00438193  0.75298195  1.0
  I-  I122  1  0.00105621  0.49709035  0.75154284  1.0
  I-  I123  1  0.00000000  0.00000000  0.55000000  1.0
  I-  I124  1  0.00000000  0.50000000  0.55000000  1.0
  I-  I125  1  0.00000000  0.00000000  0.35000000  1.0
  I-  I126  1  0.00228504  0.50127799  0.35139305  1.0
  I-  I127  1  0.00317894  0.00336421  0.15259621  1.0
  I-  I128  1  0.00000000  0.50000000  0.15000000  1.0
  I-  I129  1  0.00000000  0.00000000  0.95000000  1.0
  I-  I130  1  0.00000000  0.50000000  0.95000000  1.0
