# generated using pymatgen
data_Li61SiP9(S5I)10
_symmetry_space_group_name_H-M   'P 1'
_cell_length_a   7.18299574
_cell_length_b   35.91497872
_cell_length_c   14.36599149
_cell_angle_alpha   60.00000000
_cell_angle_beta   60.00000000
_cell_angle_gamma   60.00000000
_symmetry_Int_Tables_number   1
_chemical_formula_structural   Li61SiP9(S5I)10
_chemical_formula_sum   'Li61 Si1 P9 S50 I10'
_cell_volume   2620.60659311
_cell_formula_units_Z   1
loop_
 _symmetry_equiv_pos_site_id
 _symmetry_equiv_pos_as_xyz
  1  'x, y, z'
loop_
 _atom_type_symbol
 _atom_type_oxidation_number
  Li+  1.0
  Si4+  4.0
  P5+  5.0
  S2-  -2.0
  I-  -1.0
loop_
 _atom_site_type_symbol
 _atom_site_label
 _atom_site_symmetry_multiplicity
 _atom_site_fract_x
 _atom_site_fract_y
 _atom_site_fract_z
 _atom_site_occupancy
  Li+  Li0  1  0.48050000  0.00390000  0.74025000  1.0
  Li+  Li1  1  0.48050000  0.40390000  0.24025000  1.0
  Li+  Li2  1  0.01950000  0.29610000  0.74025000  1.0
  Li+  Li3  1  0.01950000  0.69610000  0.24025000  1.0
  Li+  Li4  1  0.01950000  0.89610000  0.24025000  1.0
  Li+  Li5  1  0.01950000  0.89610000  0.74025000  1.0
  Li+  Li6  1  0.48050000  0.60390000  0.50975000  1.0
  Li+  Li7  1  0.01950000  0.00390000  0.74025000  1.0
  Li+  Li8  1  0.01950000  0.40390000  0.74025000  1.0
  Li+  Li9  1  0.01950000  0.80390000  0.74025000  1.0
  Li+  Li10  1  0.01950000  0.29610000  0.00975000  1.0
  Li+  Li11  1  0.01950000  0.29610000  0.50975000  1.0
  Li+  Li12  1  0.01950000  0.49610000  0.50975000  1.0
  Li+  Li13  1  0.01950000  0.89610000  0.50975000  1.0
  Li+  Li14  1  0.48050000  0.29610000  0.50975000  1.0
  Li+  Li15  1  0.40704000  0.00047200  0.29412000  1.0
  Li+  Li16  1  0.40704000  0.40047200  0.79412000  1.0
  Li+  Li17  1  0.00236000  0.51764800  0.20352000  1.0
  Li+  Li18  1  0.00236000  0.71764800  0.20352000  1.0
  Li+  Li19  1  0.00236000  0.71764800  0.70352000  1.0
  Li+  Li20  1  0.00236000  0.91764800  0.70352000  1.0
  Li+  Li21  1  0.58824000  0.20047200  0.00118000  1.0
  Li+  Li22  1  0.58824000  0.20047200  0.50118000  1.0
  Li+  Li23  1  0.58824000  0.80047200  0.00118000  1.0
  Li+  Li24  1  0.58824000  0.20047200  0.70352000  1.0
  Li+  Li25  1  0.58824000  0.60047200  0.70352000  1.0
  Li+  Li26  1  0.58824000  0.80047200  0.20352000  1.0
  Li+  Li27  1  0.58824000  0.80047200  0.70352000  1.0
  Li+  Li28  1  0.00236000  0.00047200  0.29412000  1.0
  Li+  Li29  1  0.00236000  0.20047200  0.79412000  1.0
  Li+  Li30  1  0.00236000  0.40047200  0.29412000  1.0
  Li+  Li31  1  0.00236000  0.00047200  0.20352000  1.0
  Li+  Li32  1  0.00236000  0.40047200  0.20352000  1.0
  Li+  Li33  1  0.00236000  0.60047200  0.20352000  1.0
  Li+  Li34  1  0.00236000  0.60047200  0.70352000  1.0
  Li+  Li35  1  0.00236000  0.08140800  0.29412000  1.0
  Li+  Li36  1  0.00236000  0.08140800  0.79412000  1.0
  Li+  Li37  1  0.00236000  0.28140800  0.29412000  1.0
  Li+  Li38  1  0.00236000  0.48140800  0.79412000  1.0
  Li+  Li39  1  0.00236000  0.08140800  0.00118000  1.0
  Li+  Li40  1  0.00236000  0.28140800  0.00118000  1.0
  Li+  Li41  1  0.00236000  0.68140800  0.00118000  1.0
  Li+  Li42  1  0.00236000  0.88140800  0.50118000  1.0
  Li+  Li43  1  0.40704000  0.00047200  0.00118000  1.0
  Li+  Li44  1  0.40704000  0.00047200  0.50118000  1.0
  Li+  Li45  1  0.40704000  0.20047200  0.00118000  1.0
  Li+  Li46  1  0.40704000  0.20047200  0.50118000  1.0
  Li+  Li47  1  0.40704000  0.80047200  0.00118000  1.0
  Li+  Li48  1  0.40704000  0.80047200  0.50118000  1.0
  Li+  Li49  1  0.00236000  0.11764800  0.00118000  1.0
  Li+  Li50  1  0.00236000  0.51764800  0.00118000  1.0
  Li+  Li51  1  0.00236000  0.71764800  0.50118000  1.0
  Li+  Li52  1  0.58824000  0.08140800  0.00118000  1.0
  Li+  Li53  1  0.58824000  0.28140800  0.50118000  1.0
  Li+  Li54  1  0.58824000  0.48140800  0.50118000  1.0
  Li+  Li55  1  0.58824000  0.68140800  0.00118000  1.0
  Li+  Li56  1  0.58824000  0.88140800  0.50118000  1.0
  Li+  Li57  1  0.40704000  0.31764800  0.50118000  1.0
  Li+  Li58  1  0.40704000  0.51764800  0.50118000  1.0
  Li+  Li59  1  0.40704000  0.91764800  0.00118000  1.0
  Li+  Li60  1  0.40704000  0.91764800  0.50118000  1.0
  Si4+  Si61  1  0.50000000  0.90000000  0.25000000  1.0
  P5+  P62  1  0.50000000  0.10000000  0.25000000  1.0
  P5+  P63  1  0.50000000  0.10000000  0.75000000  1.0
  P5+  P64  1  0.50000000  0.30000000  0.25000000  1.0
  P5+  P65  1  0.50000000  0.30000000  0.75000000  1.0
  P5+  P66  1  0.50000000  0.50000000  0.25000000  1.0
  P5+  P67  1  0.50000000  0.50000000  0.75000000  1.0
  P5+  P68  1  0.50000000  0.70000000  0.25000000  1.0
  P5+  P69  1  0.50000000  0.70000000  0.75000000  1.0
  P5+  P70  1  0.50000000  0.90000000  0.75000000  1.0
  S2-  S1  1  0.25000000  0.05000000  0.12500000  1.0
  S2-  S1  1  0.25000000  0.05000000  0.62500000  1.0
  S2-  S1  1  0.25000000  0.25000000  0.12500000  1.0
  S2-  S1  1  0.25000000  0.25000000  0.62500000  1.0
  S2-  S1  1  0.25000000  0.45000000  0.12500000  1.0
  S2-  S1  1  0.25000000  0.45000000  0.62500000  1.0
  S2-  S1  1  0.25000000  0.65000000  0.12500000  1.0
  S2-  S1  1  0.25000000  0.65000000  0.62500000  1.0
  S2-  S1  1  0.25000000  0.85000000  0.12500000  1.0
  S2-  S1  1  0.25000000  0.85000000  0.62500000  1.0
  S2-  S3  1  0.61618000  0.03029200  0.30809000  1.0
  S2-  S3  1  0.61618000  0.03029200  0.80809000  1.0
  S2-  S3  1  0.61618000  0.23029200  0.30809000  1.0
  S2-  S3  1  0.61618000  0.23029200  0.80809000  1.0
  S2-  S3  1  0.61618000  0.43029200  0.30809000  1.0
  S2-  S3  1  0.61618000  0.43029200  0.80809000  1.0
  S2-  S3  1  0.61618000  0.63029200  0.30809000  1.0
  S2-  S3  1  0.61618000  0.63029200  0.80809000  1.0
  S2-  S3  1  0.61618000  0.83029200  0.30809000  1.0
  S2-  S3  1  0.61618000  0.83029200  0.80809000  1.0
  S2-  S3  1  0.61618000  0.12323600  0.30809000  1.0
  S2-  S3  1  0.61618000  0.12323600  0.80809000  1.0
  S2-  S3  1  0.61618000  0.32323600  0.30809000  1.0
  S2-  S3  1  0.61618000  0.32323600  0.80809000  1.0
  S2-  S3  1  0.61618000  0.52323600  0.30809000  1.0
  S2-  S3  1  0.61618000  0.52323600  0.80809000  1.0
  S2-  S3  1  0.61618000  0.72323600  0.30809000  1.0
  S2-  S3  1  0.61618000  0.72323600  0.80809000  1.0
  S2-  S3  1  0.61618000  0.92323600  0.30809000  1.0
  S2-  S3  1  0.61618000  0.92323600  0.80809000  1.0
  S2-  S3  1  0.61618000  0.12323600  0.07573000  1.0
  S2-  S3  1  0.61618000  0.12323600  0.57573000  1.0
  S2-  S3  1  0.61618000  0.32323600  0.07573000  1.0
  S2-  S3  1  0.61618000  0.32323600  0.57573000  1.0
  S2-  S3  1  0.61618000  0.52323600  0.07573000  1.0
  S2-  S3  1  0.61618000  0.52323600  0.57573000  1.0
  S2-  S3  1  0.61618000  0.72323600  0.07573000  1.0
  S2-  S3  1  0.61618000  0.72323600  0.57573000  1.0
  S2-  S3  1  0.61618000  0.92323600  0.07573000  1.0
  S2-  S3  1  0.61618000  0.92323600  0.57573000  1.0
  S2-  S3  1  0.15146000  0.12323600  0.30809000  1.0
  S2-  S3  1  0.15146000  0.12323600  0.80809000  1.0
  S2-  S3  1  0.15146000  0.32323600  0.30809000  1.0
  S2-  S3  1  0.15146000  0.32323600  0.80809000  1.0
  S2-  S3  1  0.15146000  0.52323600  0.30809000  1.0
  S2-  S3  1  0.15146000  0.52323600  0.80809000  1.0
  S2-  S3  1  0.15146000  0.72323600  0.30809000  1.0
  S2-  S3  1  0.15146000  0.72323600  0.80809000  1.0
  S2-  S3  1  0.15146000  0.92323600  0.30809000  1.0
  S2-  S3  1  0.15146000  0.92323600  0.80809000  1.0
  I-  I1  1  0.00000000  0.00000000  0.00000000  1.0
  I-  I1  1  0.00000000  0.00000000  0.50000000  1.0
  I-  I1  1  0.00000000  0.20000000  0.00000000  1.0
  I-  I1  1  0.00000000  0.20000000  0.50000000  1.0
  I-  I1  1  0.00000000  0.40000000  0.00000000  1.0
  I-  I1  1  0.00000000  0.40000000  0.50000000  1.0
  I-  I1  1  0.00000000  0.60000000  0.00000000  1.0
  I-  I1  1  0.00000000  0.60000000  0.50000000  1.0
  I-  I1  1  0.00000000  0.80000000  0.00000000  1.0
  I-  I1  1  0.00000000  0.80000000  0.50000000  1.0
