# generated using pymatgen
data_Li5Ti3Sn7(PO4)15
_symmetry_space_group_name_H-M   'P 1'
_cell_length_a   8.59830000
_cell_length_b   42.99150000
_cell_length_c   8.65974174
_cell_angle_alpha   60.23442781
_cell_angle_beta   60.23442781
_cell_angle_gamma   60.00000000
_symmetry_Int_Tables_number   1
_chemical_formula_structural   Li5Ti3Sn7(PO4)15
_chemical_formula_sum   'Li10 Ti6 Sn14 P30 O120'
_cell_volume   2271.51154695
_cell_formula_units_Z   2
loop_
 _symmetry_equiv_pos_site_id
 _symmetry_equiv_pos_as_xyz
  1  'x, y, z'
loop_
 _atom_type_symbol
 _atom_type_oxidation_number
  Li+  1.0
  Ti4+  4.0
  Sn4+  4.0
  P5+  5.0
  O2-  -2.0
loop_
 _atom_site_type_symbol
 _atom_site_label
 _atom_site_symmetry_multiplicity
 _atom_site_fract_x
 _atom_site_fract_y
 _atom_site_fract_z
 _atom_site_occupancy
  Li+  Li1  1  0.50000000  0.10000000  0.50000000  1.0
  Li+  Li1  1  0.50000000  0.30000000  0.50000000  1.0
  Li+  Li1  1  0.50000000  0.50000000  0.50000000  1.0
  Li+  Li1  1  0.50000000  0.70000000  0.50000000  1.0
  Li+  Li1  1  0.50000000  0.90000000  0.50000000  1.0
  Li+  Li1  1  0.00000000  0.00000000  0.00000000  1.0
  Li+  Li1  1  0.00000000  0.20000000  1.00000000  1.0
  Li+  Li1  1  0.00000000  0.40000000  1.00000000  1.0
  Li+  Li1  1  1.00000000  0.60000000  1.00000000  1.0
  Li+  Li1  1  0.00000000  0.80000000  1.00000000  1.0
  Ti4+  Ti10  1  0.35650000  0.27130000  0.93050000  1.0
  Ti4+  Ti11  1  0.85650000  0.77130000  0.43050000  1.0
  Ti4+  Ti12  1  0.64350000  0.12870000  0.06950000  1.0
  Ti4+  Ti13  1  0.64350000  0.52870000  0.06950000  1.0
  Ti4+  Ti14  1  0.64350000  0.72870000  0.06950000  1.0
  Ti4+  Ti15  1  0.14350000  0.62870000  0.56950000  1.0
  Sn4+  Sn16  1  0.35650000  0.07130000  0.93050000  1.0
  Sn4+  Sn17  1  0.35650000  0.47130000  0.93050000  1.0
  Sn4+  Sn18  1  0.35650000  0.67130000  0.93050000  1.0
  Sn4+  Sn19  1  0.35650000  0.87130000  0.93050000  1.0
  Sn4+  Sn20  1  0.85650000  0.17130000  0.43050000  1.0
  Sn4+  Sn21  1  0.85650000  0.37130000  0.43050000  1.0
  Sn4+  Sn22  1  0.85650000  0.57130000  0.43050000  1.0
  Sn4+  Sn23  1  0.85650000  0.97130000  0.43050000  1.0
  Sn4+  Sn24  1  0.64350000  0.32870000  0.06950000  1.0
  Sn4+  Sn25  1  0.64350000  0.92870000  0.06950000  1.0
  Sn4+  Sn26  1  0.14350000  0.02870000  0.56950000  1.0
  Sn4+  Sn27  1  0.14350000  0.22870000  0.56950000  1.0
  Sn4+  Sn28  1  0.14350000  0.42870000  0.56950000  1.0
  Sn4+  Sn29  1  0.14350000  0.82870000  0.56950000  1.0
  P5+  P1  1  0.25000000  0.19186000  0.25000000  1.0
  P5+  P1  1  0.25000000  0.39186000  0.25000000  1.0
  P5+  P1  1  0.25000000  0.59186000  0.25000000  1.0
  P5+  P1  1  0.25000000  0.79186000  0.25000000  1.0
  P5+  P1  1  0.25000000  0.99186000  0.25000000  1.0
  P5+  P1  1  0.54070000  0.05000000  0.25000000  1.0
  P5+  P1  1  0.54070000  0.25000000  0.25000000  1.0
  P5+  P1  1  0.54070000  0.45000000  0.25000000  1.0
  P5+  P1  1  0.54070000  0.65000000  0.25000000  1.0
  P5+  P1  1  0.54070000  0.85000000  0.25000000  1.0
  P5+  P1  1  0.95930000  0.10814000  0.25000000  1.0
  P5+  P1  1  0.95930000  0.30814000  0.25000000  1.0
  P5+  P1  1  0.95930000  0.50814000  0.25000000  1.0
  P5+  P1  1  0.95930000  0.70814000  0.25000000  1.0
  P5+  P1  1  0.95930000  0.90814000  0.25000000  1.0
  P5+  P1  1  0.45930000  0.15000000  0.75000000  1.0
  P5+  P1  1  0.45930000  0.35000000  0.75000000  1.0
  P5+  P1  1  0.45930000  0.55000000  0.75000000  1.0
  P5+  P1  1  0.45930000  0.75000000  0.75000000  1.0
  P5+  P1  1  0.45930000  0.95000000  0.75000000  1.0
  P5+  P1  1  0.04070000  0.09186000  0.75000000  1.0
  P5+  P1  1  0.04070000  0.29186000  0.75000000  1.0
  P5+  P1  1  0.04070000  0.49186000  0.75000000  1.0
  P5+  P1  1  0.04070000  0.69186000  0.75000000  1.0
  P5+  P1  1  0.04070000  0.89186000  0.75000000  1.0
  P5+  P1  1  0.75000000  0.00814000  0.75000000  1.0
  P5+  P1  1  0.75000000  0.20814000  0.75000000  1.0
  P5+  P1  1  0.75000000  0.40814000  0.75000000  1.0
  P5+  P1  1  0.75000000  0.60814000  0.75000000  1.0
  P5+  P1  1  0.75000000  0.80814000  0.75000000  1.0
  O2-  O1  1  0.30390000  0.02358000  0.07000000  1.0
  O2-  O1  1  0.30390000  0.22358000  0.07000000  1.0
  O2-  O1  1  0.30390000  0.42358000  0.07000000  1.0
  O2-  O1  1  0.30390000  0.62358000  0.07000000  1.0
  O2-  O1  1  0.30390000  0.82358000  0.07000000  1.0
  O2-  O1  1  0.50820000  0.06078000  0.07000000  1.0
  O2-  O1  1  0.50820000  0.26078000  0.07000000  1.0
  O2-  O1  1  0.50820000  0.46078000  0.07000000  1.0
  O2-  O1  1  0.50820000  0.66078000  0.07000000  1.0
  O2-  O1  1  0.50820000  0.86078000  0.07000000  1.0
  O2-  O1  1  0.11790000  0.10164000  0.07000000  1.0
  O2-  O1  1  0.11790000  0.30164000  0.07000000  1.0
  O2-  O1  1  0.11790000  0.50164000  0.07000000  1.0
  O2-  O1  1  0.11790000  0.70164000  0.07000000  1.0
  O2-  O1  1  0.11790000  0.90164000  0.07000000  1.0
  O2-  O1  1  0.61790000  0.16078000  0.57000000  1.0
  O2-  O1  1  0.61790000  0.36078000  0.57000000  1.0
  O2-  O1  1  0.61790000  0.56078000  0.57000000  1.0
  O2-  O1  1  0.61790000  0.76078000  0.57000000  1.0
  O2-  O1  1  0.61790000  0.96078000  0.57000000  1.0
  O2-  O1  1  0.00820000  0.12358000  0.57000000  1.0
  O2-  O1  1  0.00820000  0.32358000  0.57000000  1.0
  O2-  O1  1  0.00820000  0.52358000  0.57000000  1.0
  O2-  O1  1  0.00820000  0.72358000  0.57000000  1.0
  O2-  O1  1  0.00820000  0.92358000  0.57000000  1.0
  O2-  O1  1  0.80390000  0.00164000  0.57000000  1.0
  O2-  O1  1  0.80390000  0.20164000  0.57000000  1.0
  O2-  O1  1  0.80390000  0.40164000  0.57000000  1.0
  O2-  O1  1  0.80390000  0.60164000  0.57000000  1.0
  O2-  O1  1  0.80390000  0.80164000  0.57000000  1.0
  O2-  O1  1  0.69610000  0.17642000  0.93000000  1.0
  O2-  O1  1  0.69610000  0.37642000  0.93000000  1.0
  O2-  O1  1  0.69610000  0.57642000  0.93000000  1.0
  O2-  O1  1  0.69610000  0.77642000  0.93000000  1.0
  O2-  O1  1  0.69610000  0.97642000  0.93000000  1.0
  O2-  O1  1  0.49180000  0.13922000  0.93000000  1.0
  O2-  O1  1  0.49180000  0.33922000  0.93000000  1.0
  O2-  O1  1  0.49180000  0.53922000  0.93000000  1.0
  O2-  O1  1  0.49180000  0.73922000  0.93000000  1.0
  O2-  O1  1  0.49180000  0.93922000  0.93000000  1.0
  O2-  O1  1  0.88210000  0.09836000  0.93000000  1.0
  O2-  O1  1  0.88210000  0.29836000  0.93000000  1.0
  O2-  O1  1  0.88210000  0.49836000  0.93000000  1.0
  O2-  O1  1  0.88210000  0.69836000  0.93000000  1.0
  O2-  O1  1  0.88210000  0.89836000  0.93000000  1.0
  O2-  O1  1  0.38210000  0.03922000  0.43000000  1.0
  O2-  O1  1  0.38210000  0.23922000  0.43000000  1.0
  O2-  O1  1  0.38210000  0.43922000  0.43000000  1.0
  O2-  O1  1  0.38210000  0.63922000  0.43000000  1.0
  O2-  O1  1  0.38210000  0.83922000  0.43000000  1.0
  O2-  O1  1  0.99180000  0.07642000  0.43000000  1.0
  O2-  O1  1  0.99180000  0.27642000  0.43000000  1.0
  O2-  O1  1  0.99180000  0.47642000  0.43000000  1.0
  O2-  O1  1  0.99180000  0.67642000  0.43000000  1.0
  O2-  O1  1  0.99180000  0.87642000  0.43000000  1.0
  O2-  O1  1  0.19610000  0.19836000  0.43000000  1.0
  O2-  O1  1  0.19610000  0.39836000  0.43000000  1.0
  O2-  O1  1  0.19610000  0.59836000  0.43000000  1.0
  O2-  O1  1  0.19610000  0.79836000  0.43000000  1.0
  O2-  O1  1  0.19610000  0.99836000  0.43000000  1.0
  O2-  O2  1  0.58580000  0.04630000  0.74390000  1.0
  O2-  O2  1  0.58580000  0.24630000  0.74390000  1.0
  O2-  O2  1  0.58580000  0.44630000  0.74390000  1.0
  O2-  O2  1  0.58580000  0.64630000  0.74390000  1.0
  O2-  O2  1  0.58580000  0.84630000  0.74390000  1.0
  O2-  O2  1  0.43880000  0.11716000  0.74390000  1.0
  O2-  O2  1  0.43880000  0.31716000  0.74390000  1.0
  O2-  O2  1  0.43880000  0.51716000  0.74390000  1.0
  O2-  O2  1  0.43880000  0.71716000  0.74390000  1.0
  O2-  O2  1  0.43880000  0.91716000  0.74390000  1.0
  O2-  O2  1  0.23150000  0.08776000  0.74390000  1.0
  O2-  O2  1  0.23150000  0.28776000  0.74390000  1.0
  O2-  O2  1  0.23150000  0.48776000  0.74390000  1.0
  O2-  O2  1  0.23150000  0.68776000  0.74390000  1.0
  O2-  O2  1  0.23150000  0.88776000  0.74390000  1.0
  O2-  O2  1  0.73150000  0.01716000  0.24390000  1.0
  O2-  O2  1  0.73150000  0.21716000  0.24390000  1.0
  O2-  O2  1  0.73150000  0.41716000  0.24390000  1.0
  O2-  O2  1  0.73150000  0.61716000  0.24390000  1.0
  O2-  O2  1  0.73150000  0.81716000  0.24390000  1.0
  O2-  O2  1  0.93880000  0.14630000  0.24390000  1.0
  O2-  O2  1  0.93880000  0.34630000  0.24390000  1.0
  O2-  O2  1  0.93880000  0.54630000  0.24390000  1.0
  O2-  O2  1  0.93880000  0.74630000  0.24390000  1.0
  O2-  O2  1  0.93880000  0.94630000  0.24390000  1.0
  O2-  O2  1  0.08580000  0.18776000  0.24390000  1.0
  O2-  O2  1  0.08580000  0.38776000  0.24390000  1.0
  O2-  O2  1  0.08580000  0.58776000  0.24390000  1.0
  O2-  O2  1  0.08580000  0.78776000  0.24390000  1.0
  O2-  O2  1  0.08580000  0.98776000  0.24390000  1.0
  O2-  O2  1  0.41420000  0.15370000  0.25610000  1.0
  O2-  O2  1  0.41420000  0.35370000  0.25610000  1.0
  O2-  O2  1  0.41420000  0.55370000  0.25610000  1.0
  O2-  O2  1  0.41420000  0.75370000  0.25610000  1.0
  O2-  O2  1  0.41420000  0.95370000  0.25610000  1.0
  O2-  O2  1  0.56120000  0.08284000  0.25610000  1.0
  O2-  O2  1  0.56120000  0.28284000  0.25610000  1.0
  O2-  O2  1  0.56120000  0.48284000  0.25610000  1.0
  O2-  O2  1  0.56120000  0.68284000  0.25610000  1.0
  O2-  O2  1  0.56120000  0.88284000  0.25610000  1.0
  O2-  O2  1  0.76850000  0.11224000  0.25610000  1.0
  O2-  O2  1  0.76850000  0.31224000  0.25610000  1.0
  O2-  O2  1  0.76850000  0.51224000  0.25610000  1.0
  O2-  O2  1  0.76850000  0.71224000  0.25610000  1.0
  O2-  O2  1  0.76850000  0.91224000  0.25610000  1.0
  O2-  O2  1  0.26850000  0.18284000  0.75610000  1.0
  O2-  O2  1  0.26850000  0.38284000  0.75610000  1.0
  O2-  O2  1  0.26850000  0.58284000  0.75610000  1.0
  O2-  O2  1  0.26850000  0.78284000  0.75610000  1.0
  O2-  O2  1  0.26850000  0.98284000  0.75610000  1.0
  O2-  O2  1  0.06120000  0.05370000  0.75610000  1.0
  O2-  O2  1  0.06120000  0.25370000  0.75610000  1.0
  O2-  O2  1  0.06120000  0.45370000  0.75610000  1.0
  O2-  O2  1  0.06120000  0.65370000  0.75610000  1.0
  O2-  O2  1  0.06120000  0.85370000  0.75610000  1.0
  O2-  O2  1  0.91420000  0.01224000  0.75610000  1.0
  O2-  O2  1  0.91420000  0.21224000  0.75610000  1.0
  O2-  O2  1  0.91420000  0.41224000  0.75610000  1.0
  O2-  O2  1  0.91420000  0.61224000  0.75610000  1.0
  O2-  O2  1  0.91420000  0.81224000  0.75610000  1.0
