# generated using pymatgen
data_SrLi6La2(SbO6)2
_symmetry_space_group_name_H-M   'P 1'
_cell_length_a   11.16592534
_cell_length_b   11.16592534
_cell_length_c   22.33185068
_cell_angle_alpha   109.47122063
_cell_angle_beta   70.52877937
_cell_angle_gamma   70.52877937
_symmetry_Int_Tables_number   1
_chemical_formula_structural   SrLi6La2(SbO6)2
_chemical_formula_sum   'Sr8 Li48 La16 Sb16 O96'
_cell_volume   2143.34589710
_cell_formula_units_Z   8
loop_
 _symmetry_equiv_pos_site_id
 _symmetry_equiv_pos_as_xyz
  1  'x, y, z'
loop_
 _atom_type_symbol
 _atom_type_oxidation_number
  Sr2+  2.0
  Li+  1.0
  La3+  3.0
  Sb5+  5.0
  O2-  -2.0
loop_
 _atom_site_type_symbol
 _atom_site_label
 _atom_site_symmetry_multiplicity
 _atom_site_fract_x
 _atom_site_fract_y
 _atom_site_fract_z
 _atom_site_occupancy
  Sr2+  Sr0  1  0.37499735  0.87503617  0.62587844  1.0
  Sr2+  Sr1  1  0.37512235  0.87260504  0.12239113  1.0
  Sr2+  Sr2  1  0.25000000  0.37500000  0.56250000  1.0
  Sr2+  Sr3  1  0.25121270  0.37682251  0.06031456  1.0
  Sr2+  Sr4  1  0.62416265  0.25211494  0.56226100  1.0
  Sr2+  Sr5  1  0.62500000  0.25000000  0.06250000  1.0
  Sr2+  Sr6  1  0.87500000  0.75000000  0.68750000  1.0
  Sr2+  Sr7  1  0.87500000  0.75000000  0.18750000  1.0
  Li+  Li8  1  0.21577944  0.56235744  0.50902950  1.0
  Li+  Li9  1  0.21676144  0.55866859  0.00129919  1.0
  Li+  Li10  1  0.55050000  0.72540000  0.25505000  1.0
  Li+  Li11  1  0.55050000  0.72540000  0.75505000  1.0
  Li+  Li12  1  0.71666659  0.77676342  0.36524687  1.0
  Li+  Li13  1  0.71627967  0.77306036  0.86077749  1.0
  Li+  Li14  1  0.55826260  0.98569481  0.60719081  1.0
  Li+  Li15  1  0.56060000  0.98990000  0.10765000  1.0
  Li+  Li16  1  0.22410000  0.05050000  0.53030000  1.0
  Li+  Li17  1  0.22538464  0.05426581  0.02699808  1.0
  Li+  Li18  1  0.01010000  0.77460000  0.52525000  1.0
  Li+  Li19  1  0.01010000  0.77460000  0.02525000  1.0
  Li+  Li20  1  0.27590000  0.43940000  0.72475000  1.0
  Li+  Li21  1  0.27298866  0.43841482  0.22441967  1.0
  Li+  Li22  1  0.95061859  0.99159258  0.38539451  1.0
  Li+  Li23  1  0.94950000  0.98990000  0.88730000  1.0
  Li+  Li24  1  0.27895677  0.21671398  0.38876492  1.0
  Li+  Li25  1  0.27460000  0.21530000  0.88795000  1.0
  Li+  Li26  1  0.51445558  0.93783596  0.35782506  1.0
  Li+  Li27  1  0.51010000  0.93940000  0.85765000  1.0
  Li+  Li28  1  0.77999765  0.27643205  0.39092527  1.0
  Li+  Li29  1  0.77590000  0.27460000  0.89235000  1.0
  Li+  Li30  1  0.72410000  0.56060000  0.27525000  1.0
  Li+  Li31  1  0.72528767  0.55981410  0.77352907  1.0
  Li+  Li32  1  0.21582783  0.22574838  0.63453131  1.0
  Li+  Li33  1  0.21530000  0.22410000  0.13730000  1.0
  Li+  Li34  1  0.43940000  0.55050000  0.63795000  1.0
  Li+  Li35  1  0.43940000  0.55050000  0.13795000  1.0
  Li+  Li36  1  0.87500000  0.87500000  0.37500000  1.0
  Li+  Li37  1  0.87500000  0.87500000  0.87500000  1.0
  Li+  Li38  1  0.62500000  0.62500000  0.62500000  1.0
  Li+  Li39  1  0.62500000  0.62500000  0.12500000  1.0
  Li+  Li40  1  0.12500000  0.75000000  0.56250000  1.0
  Li+  Li41  1  0.12500000  0.75000000  0.06250000  1.0
  Li+  Li42  1  0.37500000  0.25000000  0.68750000  1.0
  Li+  Li43  1  0.37420823  0.24662078  0.18952978  1.0
  Li+  Li44  1  0.75000000  0.37500000  0.31250000  1.0
  Li+  Li45  1  0.75000000  0.37500000  0.81250000  1.0
  Li+  Li46  1  0.25000000  0.12500000  0.43750000  1.0
  Li+  Li47  1  0.25000000  0.12500000  0.93750000  1.0
  Li+  Li48  1  0.37500000  0.37500000  0.37500000  1.0
  Li+  Li49  1  0.37500000  0.37500000  0.87500000  1.0
  Li+  Li50  1  0.87386238  0.25040389  0.43699148  1.0
  Li+  Li51  1  0.87500000  0.25000000  0.93750000  1.0
  Li+  Li52  1  0.25170446  0.62154903  0.68921046  1.0
  Li+  Li53  1  0.24623736  0.62416156  0.18861323  1.0
  Li+  Li54  1  0.74813726  0.87419399  0.56606327  1.0
  Li+  Li55  1  0.75000000  0.87500000  0.06250000  1.0
  La3+  La56  1  0.75000000  0.62500000  0.43750000  1.0
  La3+  La57  1  0.75000000  0.62500000  0.93750000  1.0
  La3+  La58  1  0.25000000  0.87500000  0.31250000  1.0
  La3+  La59  1  0.25000000  0.87500000  0.81250000  1.0
  La3+  La60  1  0.12500000  0.62500000  0.37500000  1.0
  La3+  La61  1  0.12500000  0.62500000  0.87500000  1.0
  La3+  La62  1  0.37500000  0.75000000  0.43750000  1.0
  La3+  La63  1  0.37500000  0.75000000  0.93750000  1.0
  La3+  La64  1  0.12500000  0.25000000  0.31250000  1.0
  La3+  La65  1  0.12725251  0.24702960  0.81150757  1.0
  La3+  La66  1  0.75000000  0.12500000  0.68750000  1.0
  La3+  La67  1  0.75000000  0.12500000  0.18750000  1.0
  La3+  La68  1  0.87500000  0.37500000  0.62500000  1.0
  La3+  La69  1  0.87500000  0.37500000  0.12500000  1.0
  La3+  La70  1  0.62500000  0.12500000  0.37500000  1.0
  La3+  La71  1  0.62500000  0.12500000  0.87500000  1.0
  Sb5+  Sb72  1  0.00000000  0.50000000  0.75000000  1.0
  Sb5+  Sb73  1  0.00000000  0.50000000  0.25000000  1.0
  Sb5+  Sb74  1  0.50000000  0.50000000  0.50000000  1.0
  Sb5+  Sb75  1  0.49751254  0.50420332  0.99958863  1.0
  Sb5+  Sb76  1  0.00000000  0.00000000  0.50000000  1.0
  Sb5+  Sb77  1  0.00000000  0.00000000  0.00000000  1.0
  Sb5+  Sb78  1  0.50000000  0.00000000  0.75000000  1.0
  Sb5+  Sb79  1  0.50000000  0.00000000  0.25000000  1.0
  Sb5+  Sb80  1  0.00000000  0.50000000  0.50000000  1.0
  Sb5+  Sb81  1  0.00000000  0.50000000  0.00000000  1.0
  Sb5+  Sb82  1  0.49695747  0.49824987  0.74684001  1.0
  Sb5+  Sb83  1  0.50000000  0.50000000  0.25000000  1.0
  Sb5+  Sb84  1  0.50000000  0.00000000  0.50000000  1.0
  Sb5+  Sb85  1  0.50000000  0.00000000  0.00000000  1.0
  Sb5+  Sb86  1  0.00000000  0.00000000  0.75000000  1.0
  Sb5+  Sb87  1  0.00097924  0.99486967  0.24833404  1.0
  O2-  O88  1  0.90240000  0.67650000  0.49255000  1.0
  O2-  O89  1  0.90263525  0.67810958  0.99364999  1.0
  O2-  O90  1  0.59760000  0.88750000  0.53945000  1.0
  O2-  O91  1  0.59760000  0.88750000  0.03945000  1.0
  O2-  O92  1  0.30860000  0.61250000  0.25745000  1.0
  O2-  O93  1  0.30860000  0.61250000  0.75745000  1.0
  O2-  O94  1  0.19140000  0.82350000  0.71055000  1.0
  O2-  O95  1  0.19140000  0.82350000  0.21055000  1.0
  O2-  O96  1  0.38750000  0.51490000  0.34570000  1.0
  O2-  O97  1  0.38750000  0.51490000  0.84570000  1.0
  O2-  O98  1  0.17650000  0.42110000  0.40430000  1.0
  O2-  O99  1  0.17650000  0.42110000  0.90430000  1.0
  O2-  O100  1  0.32350000  0.98510000  0.54880000  1.0
  O2-  O101  1  0.32350000  0.98510000  0.04880000  1.0
  O2-  O102  1  0.11250000  0.07890000  0.70120000  1.0
  O2-  O103  1  0.11250000  0.07890000  0.20120000  1.0
  O2-  O104  1  0.57890000  0.80860000  0.41175000  1.0
  O2-  O105  1  0.57890000  0.80860000  0.91175000  1.0
  O2-  O106  1  0.48510000  0.69140000  0.30625000  1.0
  O2-  O107  1  0.48306507  0.69269105  0.80920998  1.0
  O2-  O108  1  0.92110000  0.40240000  0.44375000  1.0
  O2-  O109  1  0.92110000  0.40240000  0.94375000  1.0
  O2-  O110  1  0.01490000  0.09760000  0.33825000  1.0
  O2-  O111  1  0.01490000  0.09760000  0.83825000  1.0
  O2-  O112  1  0.09320553  0.32300049  0.50658628  1.0
  O2-  O113  1  0.09964307  0.32209680  0.00576767  1.0
  O2-  O114  1  0.40240000  0.11250000  0.46055000  1.0
  O2-  O115  1  0.40240000  0.11250000  0.96055000  1.0
  O2-  O116  1  0.69140000  0.38750000  0.74255000  1.0
  O2-  O117  1  0.69140000  0.38750000  0.24255000  1.0
  O2-  O118  1  0.80860000  0.17650000  0.28945000  1.0
  O2-  O119  1  0.80590030  0.17200778  0.79185413  1.0
  O2-  O120  1  0.61250000  0.48510000  0.65430000  1.0
  O2-  O121  1  0.61250000  0.48510000  0.15430000  1.0
  O2-  O122  1  0.82350000  0.57890000  0.59570000  1.0
  O2-  O123  1  0.82350000  0.57890000  0.09570000  1.0
  O2-  O124  1  0.67650000  0.01490000  0.45120000  1.0
  O2-  O125  1  0.68016540  0.01393211  0.95286974  1.0
  O2-  O126  1  0.88750000  0.92110000  0.29880000  1.0
  O2-  O127  1  0.88750000  0.92110000  0.79880000  1.0
  O2-  O128  1  0.42110000  0.19140000  0.58825000  1.0
  O2-  O129  1  0.42110000  0.19140000  0.08825000  1.0
  O2-  O130  1  0.51490000  0.30860000  0.69375000  1.0
  O2-  O131  1  0.51490000  0.30860000  0.19375000  1.0
  O2-  O132  1  0.07890000  0.59760000  0.55625000  1.0
  O2-  O133  1  0.08415227  0.59858959  0.05075915  1.0
  O2-  O134  1  0.98510000  0.90240000  0.66175000  1.0
  O2-  O135  1  0.98506691  0.90299159  0.16536616  1.0
  O2-  O136  1  0.07890000  0.32350000  0.65430000  1.0
  O2-  O137  1  0.07725679  0.32253270  0.15217076  1.0
  O2-  O138  1  0.98351539  0.11177209  0.60065303  1.0
  O2-  O139  1  0.98510000  0.11250000  0.09570000  1.0
  O2-  O140  1  0.42110000  0.38750000  0.45120000  1.0
  O2-  O141  1  0.42246101  0.38487791  0.94921427  1.0
  O2-  O142  1  0.51490000  0.17650000  0.29880000  1.0
  O2-  O143  1  0.51490000  0.17650000  0.79880000  1.0
  O2-  O144  1  0.40240000  0.48510000  0.58825000  1.0
  O2-  O145  1  0.40240000  0.48510000  0.08825000  1.0
  O2-  O146  1  0.09760000  0.57890000  0.69375000  1.0
  O2-  O147  1  0.09760000  0.57890000  0.19375000  1.0
  O2-  O148  1  0.80860000  0.01490000  0.55625000  1.0
  O2-  O149  1  0.80860000  0.01490000  0.05625000  1.0
  O2-  O150  1  0.69140000  0.92110000  0.66175000  1.0
  O2-  O151  1  0.69140000  0.92110000  0.16175000  1.0
  O2-  O152  1  0.88750000  0.19140000  0.50745000  1.0
  O2-  O153  1  0.88750000  0.19140000  0.00745000  1.0
  O2-  O154  1  0.67650000  0.30860000  0.46055000  1.0
  O2-  O155  1  0.67650000  0.30860000  0.96055000  1.0
  O2-  O156  1  0.82350000  0.59760000  0.74255000  1.0
  O2-  O157  1  0.82420684  0.59909423  0.24592530  1.0
  O2-  O158  1  0.61250000  0.90240000  0.28945000  1.0
  O2-  O159  1  0.61250000  0.90240000  0.78945000  1.0
  O2-  O160  1  0.92110000  0.67650000  0.34570000  1.0
  O2-  O161  1  0.92110000  0.67650000  0.84570000  1.0
  O2-  O162  1  0.01638892  0.88839916  0.40269010  1.0
  O2-  O163  1  0.01490000  0.88750000  0.90430000  1.0
  O2-  O164  1  0.58028675  0.61561477  0.55314717  1.0
  O2-  O165  1  0.57890000  0.61250000  0.04880000  1.0
  O2-  O166  1  0.48125797  0.82330789  0.70182935  1.0
  O2-  O167  1  0.48510000  0.82350000  0.20120000  1.0
  O2-  O168  1  0.59760000  0.51490000  0.41175000  1.0
  O2-  O169  1  0.59760000  0.51490000  0.91175000  1.0
  O2-  O170  1  0.90240000  0.42110000  0.30625000  1.0
  O2-  O171  1  0.90052652  0.42132941  0.80670895  1.0
  O2-  O172  1  0.19140000  0.98510000  0.44375000  1.0
  O2-  O173  1  0.19140000  0.98510000  0.94375000  1.0
  O2-  O174  1  0.31490453  0.07572278  0.33568142  1.0
  O2-  O175  1  0.31060459  0.08044607  0.83866543  1.0
  O2-  O176  1  0.11250000  0.80860000  0.49255000  1.0
  O2-  O177  1  0.11250000  0.80860000  0.99255000  1.0
  O2-  O178  1  0.32710121  0.69133681  0.53677413  1.0
  O2-  O179  1  0.32350000  0.69140000  0.03945000  1.0
  O2-  O180  1  0.17650000  0.40240000  0.25745000  1.0
  O2-  O181  1  0.17650000  0.40240000  0.75745000  1.0
  O2-  O182  1  0.38750000  0.09760000  0.71055000  1.0
  O2-  O183  1  0.38679518  0.09947199  0.21076938  1.0
