# generated using pymatgen
data_SrLi6La2(SbO6)2
_symmetry_space_group_name_H-M   'P 1'
_cell_length_a   22.54830281
_cell_length_b   11.27415140
_cell_length_c   11.27415140
_cell_angle_alpha   70.52877937
_cell_angle_beta   70.52877937
_cell_angle_gamma   109.47122063
_symmetry_Int_Tables_number   1
_chemical_formula_structural   SrLi6La2(SbO6)2
_chemical_formula_sum   'Sr8 Li48 La16 Sb16 O96'
_cell_volume   2206.27525001
_cell_formula_units_Z   8
loop_
 _symmetry_equiv_pos_site_id
 _symmetry_equiv_pos_as_xyz
  1  'x, y, z'
loop_
 _atom_type_symbol
 _atom_type_oxidation_number
  Sr2+  2.0
  Li+  1.0
  La3+  3.0
  Sb5+  5.0
  O2-  -2.0
loop_
 _atom_site_type_symbol
 _atom_site_label
 _atom_site_symmetry_multiplicity
 _atom_site_fract_x
 _atom_site_fract_y
 _atom_site_fract_z
 _atom_site_occupancy
  Sr2+  Sr0  1  0.87500000  0.29166667  0.12500000  1.0
  Sr2+  Sr1  1  0.37500000  0.29166667  0.12500000  1.0
  Sr2+  Sr2  1  0.81250000  0.41666667  0.62500000  1.0
  Sr2+  Sr3  1  0.31250000  0.41666667  0.62500000  1.0
  Sr2+  Sr4  1  0.81250000  0.04166667  0.75000000  1.0
  Sr2+  Sr5  1  0.31250000  0.04166667  0.75000000  1.0
  Sr2+  Sr6  1  0.93750000  0.79166667  0.25000000  1.0
  Sr2+  Sr7  1  0.43750000  0.79166667  0.25000000  1.0
  Li+  Li8  1  0.75505000  0.45136667  0.43940000  1.0
  Li+  Li9  1  0.25505000  0.45136667  0.43940000  1.0
  Li+  Li10  1  0.50505000  0.11616667  0.27460000  1.0
  Li+  Li11  1  0.00505000  0.11616667  0.27460000  1.0
  Li+  Li12  1  0.61205000  0.95136667  0.22540000  1.0
  Li+  Li13  1  0.11205000  0.95136667  0.22540000  1.0
  Li+  Li14  1  0.85765000  0.10606667  0.01010000  1.0
  Li+  Li15  1  0.35765000  0.10606667  0.01010000  1.0
  Li+  Li16  1  0.78030000  0.44256667  0.94950000  1.0
  Li+  Li17  1  0.28030000  0.44256667  0.94950000  1.0
  Li+  Li18  1  0.77525000  0.65656667  0.22540000  1.0
  Li+  Li19  1  0.27525000  0.65656667  0.22540000  1.0
  Li+  Li20  1  0.97475000  0.39076667  0.56060000  1.0
  Li+  Li21  1  0.47475000  0.39076667  0.56060000  1.0
  Li+  Li22  1  0.63730000  0.71716667  0.01010000  1.0
  Li+  Li23  1  0.13730000  0.71716667  0.01010000  1.0
  Li+  Li24  1  0.63795000  0.39206667  0.78470000  1.0
  Li+  Li25  1  0.13795000  0.39206667  0.78470000  1.0
  Li+  Li26  1  0.60765000  0.15656667  0.06060000  1.0
  Li+  Li27  1  0.10765000  0.15656667  0.06060000  1.0
  Li+  Li28  1  0.64235000  0.89076667  0.72540000  1.0
  Li+  Li29  1  0.14235000  0.89076667  0.72540000  1.0
  Li+  Li30  1  0.52525000  0.94256667  0.43940000  1.0
  Li+  Li31  1  0.02525000  0.94256667  0.43940000  1.0
  Li+  Li32  1  0.88730000  0.45136667  0.77590000  1.0
  Li+  Li33  1  0.38730000  0.45136667  0.77590000  1.0
  Li+  Li34  1  0.88795000  0.22726667  0.44950000  1.0
  Li+  Li35  1  0.38795000  0.22726667  0.44950000  1.0
  Li+  Li36  1  0.62500000  0.79166667  0.12500000  1.0
  Li+  Li37  1  0.12500000  0.79166667  0.12500000  1.0
  Li+  Li38  1  0.87500000  0.04166667  0.37500000  1.0
  Li+  Li39  1  0.37500000  0.04166667  0.37500000  1.0
  Li+  Li40  1  0.81250000  0.54166667  0.25000000  1.0
  Li+  Li41  1  0.31250000  0.54166667  0.25000000  1.0
  Li+  Li42  1  0.93750000  0.29166667  0.75000000  1.0
  Li+  Li43  1  0.43750000  0.29166667  0.75000000  1.0
  Li+  Li44  1  0.56250000  0.91666667  0.62500000  1.0
  Li+  Li45  1  0.06250000  0.91666667  0.62500000  1.0
  Li+  Li46  1  0.68750000  0.41666667  0.87500000  1.0
  Li+  Li47  1  0.18750000  0.41666667  0.87500000  1.0
  Li+  Li48  1  0.62500000  0.29166667  0.62500000  1.0
  Li+  Li49  1  0.12500000  0.29166667  0.62500000  1.0
  Li+  Li50  1  0.68750000  0.79166667  0.75000000  1.0
  Li+  Li51  1  0.18750000  0.79166667  0.75000000  1.0
  Li+  Li52  1  0.93750000  0.41666667  0.37500000  1.0
  Li+  Li53  1  0.43750000  0.41666667  0.37500000  1.0
  Li+  Li54  1  0.81250000  0.91666667  0.12500000  1.0
  Li+  Li55  1  0.31250000  0.91666667  0.12500000  1.0
  La3+  La56  1  0.68750000  0.91666667  0.37500000  1.0
  La3+  La57  1  0.18750000  0.91666667  0.37500000  1.0
  La3+  La58  1  0.56250000  0.41666667  0.12500000  1.0
  La3+  La59  1  0.06250000  0.41666667  0.12500000  1.0
  La3+  La60  1  0.62500000  0.54166667  0.37500000  1.0
  La3+  La61  1  0.12500000  0.54166667  0.37500000  1.0
  La3+  La62  1  0.68750000  0.29166667  0.25000000  1.0
  La3+  La63  1  0.18750000  0.29166667  0.25000000  1.0
  La3+  La64  1  0.56250000  0.54166667  0.75000000  1.0
  La3+  La65  1  0.06250000  0.54166667  0.75000000  1.0
  La3+  La66  1  0.93750000  0.91666667  0.87500000  1.0
  La3+  La67  1  0.43750000  0.91666667  0.87500000  1.0
  La3+  La68  1  0.87500000  0.79166667  0.62500000  1.0
  La3+  La69  1  0.37500000  0.79166667  0.62500000  1.0
  La3+  La70  1  0.62500000  0.04166667  0.87500000  1.0
  La3+  La71  1  0.12500000  0.04166667  0.87500000  1.0
  Sb5+  Sb72  1  0.00000000  0.66666667  0.50000000  1.0
  Sb5+  Sb73  1  0.50000000  0.66666667  0.50000000  1.0
  Sb5+  Sb74  1  0.75000000  0.16666667  0.50000000  1.0
  Sb5+  Sb75  1  0.25000000  0.16666667  0.50000000  1.0
  Sb5+  Sb76  1  0.75000000  0.66666667  0.00000000  1.0
  Sb5+  Sb77  1  0.25000000  0.66666667  0.00000000  1.0
  Sb5+  Sb78  1  0.00000000  0.16666667  0.00000000  1.0
  Sb5+  Sb79  1  0.50000000  0.16666667  0.00000000  1.0
  Sb5+  Sb80  1  0.75000000  0.66666667  0.50000000  1.0
  Sb5+  Sb81  1  0.25000000  0.66666667  0.50000000  1.0
  Sb5+  Sb82  1  0.00000000  0.16666667  0.50000000  1.0
  Sb5+  Sb83  1  0.50000000  0.16666667  0.50000000  1.0
  Sb5+  Sb84  1  0.75000000  0.16666667  0.00000000  1.0
  Sb5+  Sb85  1  0.25000000  0.16666667  0.00000000  1.0
  Sb5+  Sb86  1  0.00000000  0.66666667  0.00000000  1.0
  Sb5+  Sb87  1  0.50000000  0.66666667  0.00000000  1.0
  O2-  O88  1  0.74255000  0.76426667  0.32350000  1.0
  O2-  O89  1  0.24255000  0.76426667  0.32350000  1.0
  O2-  O90  1  0.78945000  0.06906667  0.11250000  1.0
  O2-  O91  1  0.28945000  0.06906667  0.11250000  1.0
  O2-  O92  1  0.50745000  0.35806667  0.38750000  1.0
  O2-  O93  1  0.00745000  0.35806667  0.38750000  1.0
  O2-  O94  1  0.96055000  0.47526667  0.17650000  1.0
  O2-  O95  1  0.46055000  0.47526667  0.17650000  1.0
  O2-  O96  1  0.59570000  0.27916667  0.48510000  1.0
  O2-  O97  1  0.09570000  0.27916667  0.48510000  1.0
  O2-  O98  1  0.65430000  0.49016667  0.57890000  1.0
  O2-  O99  1  0.15430000  0.49016667  0.57890000  1.0
  O2-  O100  1  0.79880000  0.34316667  0.01490000  1.0
  O2-  O101  1  0.29880000  0.34316667  0.01490000  1.0
  O2-  O102  1  0.95120000  0.55416667  0.92110000  1.0
  O2-  O103  1  0.45120000  0.55416667  0.92110000  1.0
  O2-  O104  1  0.66175000  0.08776667  0.19140000  1.0
  O2-  O105  1  0.16175000  0.08776667  0.19140000  1.0
  O2-  O106  1  0.55625000  0.18156667  0.30860000  1.0
  O2-  O107  1  0.05625000  0.18156667  0.30860000  1.0
  O2-  O108  1  0.69375000  0.74556667  0.59760000  1.0
  O2-  O109  1  0.19375000  0.74556667  0.59760000  1.0
  O2-  O110  1  0.58825000  0.65176667  0.90240000  1.0
  O2-  O111  1  0.08825000  0.65176667  0.90240000  1.0
  O2-  O112  1  0.75745000  0.56906667  0.67650000  1.0
  O2-  O113  1  0.25745000  0.56906667  0.67650000  1.0
  O2-  O114  1  0.71055000  0.26426667  0.88750000  1.0
  O2-  O115  1  0.21055000  0.26426667  0.88750000  1.0
  O2-  O116  1  0.99255000  0.97526667  0.61250000  1.0
  O2-  O117  1  0.49255000  0.97526667  0.61250000  1.0
  O2-  O118  1  0.53945000  0.85806667  0.82350000  1.0
  O2-  O119  1  0.03945000  0.85806667  0.82350000  1.0
  O2-  O120  1  0.90430000  0.05416667  0.51490000  1.0
  O2-  O121  1  0.40430000  0.05416667  0.51490000  1.0
  O2-  O122  1  0.84570000  0.84316667  0.42110000  1.0
  O2-  O123  1  0.34570000  0.84316667  0.42110000  1.0
  O2-  O124  1  0.70120000  0.99016667  0.98510000  1.0
  O2-  O125  1  0.20120000  0.99016667  0.98510000  1.0
  O2-  O126  1  0.54880000  0.77916667  0.07890000  1.0
  O2-  O127  1  0.04880000  0.77916667  0.07890000  1.0
  O2-  O128  1  0.83825000  0.24556667  0.80860000  1.0
  O2-  O129  1  0.33825000  0.24556667  0.80860000  1.0
  O2-  O130  1  0.94375000  0.15176667  0.69140000  1.0
  O2-  O131  1  0.44375000  0.15176667  0.69140000  1.0
  O2-  O132  1  0.80625000  0.58776667  0.40240000  1.0
  O2-  O133  1  0.30625000  0.58776667  0.40240000  1.0
  O2-  O134  1  0.91175000  0.68156667  0.09760000  1.0
  O2-  O135  1  0.41175000  0.68156667  0.09760000  1.0
  O2-  O136  1  0.90430000  0.58776667  0.67650000  1.0
  O2-  O137  1  0.40430000  0.58776667  0.67650000  1.0
  O2-  O138  1  0.84570000  0.68156667  0.88750000  1.0
  O2-  O139  1  0.34570000  0.68156667  0.88750000  1.0
  O2-  O140  1  0.70120000  0.24556667  0.61250000  1.0
  O2-  O141  1  0.20120000  0.24556667  0.61250000  1.0
  O2-  O142  1  0.54880000  0.15176667  0.82350000  1.0
  O2-  O143  1  0.04880000  0.15176667  0.82350000  1.0
  O2-  O144  1  0.83825000  0.26426667  0.51490000  1.0
  O2-  O145  1  0.33825000  0.26426667  0.51490000  1.0
  O2-  O146  1  0.94375000  0.56906667  0.42110000  1.0
  O2-  O147  1  0.44375000  0.56906667  0.42110000  1.0
  O2-  O148  1  0.80625000  0.85806667  0.98510000  1.0
  O2-  O149  1  0.30625000  0.85806667  0.98510000  1.0
  O2-  O150  1  0.91175000  0.97526667  0.07890000  1.0
  O2-  O151  1  0.41175000  0.97526667  0.07890000  1.0
  O2-  O152  1  0.75745000  0.77916667  0.80860000  1.0
  O2-  O153  1  0.25745000  0.77916667  0.80860000  1.0
  O2-  O154  1  0.71055000  0.99016667  0.69140000  1.0
  O2-  O155  1  0.21055000  0.99016667  0.69140000  1.0
  O2-  O156  1  0.99255000  0.84316667  0.40240000  1.0
  O2-  O157  1  0.49255000  0.84316667  0.40240000  1.0
  O2-  O158  1  0.53945000  0.05416667  0.09760000  1.0
  O2-  O159  1  0.03945000  0.05416667  0.09760000  1.0
  O2-  O160  1  0.59570000  0.74556667  0.32350000  1.0
  O2-  O161  1  0.09570000  0.74556667  0.32350000  1.0
  O2-  O162  1  0.65430000  0.65176667  0.11250000  1.0
  O2-  O163  1  0.15430000  0.65176667  0.11250000  1.0
  O2-  O164  1  0.79880000  0.08776667  0.38750000  1.0
  O2-  O165  1  0.29880000  0.08776667  0.38750000  1.0
  O2-  O166  1  0.95120000  0.18156667  0.17650000  1.0
  O2-  O167  1  0.45120000  0.18156667  0.17650000  1.0
  O2-  O168  1  0.66175000  0.06906667  0.48510000  1.0
  O2-  O169  1  0.16175000  0.06906667  0.48510000  1.0
  O2-  O170  1  0.55625000  0.76426667  0.57890000  1.0
  O2-  O171  1  0.05625000  0.76426667  0.57890000  1.0
  O2-  O172  1  0.69375000  0.47526667  0.01490000  1.0
  O2-  O173  1  0.19375000  0.47526667  0.01490000  1.0
  O2-  O174  1  0.58825000  0.35806667  0.92110000  1.0
  O2-  O175  1  0.08825000  0.35806667  0.92110000  1.0
  O2-  O176  1  0.74255000  0.55416667  0.19140000  1.0
  O2-  O177  1  0.24255000  0.55416667  0.19140000  1.0
  O2-  O178  1  0.78945000  0.34316667  0.30860000  1.0
  O2-  O179  1  0.28945000  0.34316667  0.30860000  1.0
  O2-  O180  1  0.50745000  0.49016667  0.59760000  1.0
  O2-  O181  1  0.00745000  0.49016667  0.59760000  1.0
  O2-  O182  1  0.96055000  0.27916667  0.90240000  1.0
  O2-  O183  1  0.46055000  0.27916667  0.90240000  1.0
