# generated using pymatgen
data_SrLi6La2(SbO6)2
_symmetry_space_group_name_H-M   'P 1'
_cell_length_a   11.16592534
_cell_length_b   22.33185068
_cell_length_c   11.16592534
_cell_angle_alpha   109.47122063
_cell_angle_beta   109.47122063
_cell_angle_gamma   109.47122063
_symmetry_Int_Tables_number   1
_chemical_formula_structural   SrLi6La2(SbO6)2
_chemical_formula_sum   'Sr8 Li48 La16 Sb16 O96'
_cell_volume   2143.34589710
_cell_formula_units_Z   8
loop_
 _symmetry_equiv_pos_site_id
 _symmetry_equiv_pos_as_xyz
  1  'x, y, z'
loop_
 _atom_type_symbol
 _atom_type_oxidation_number
  Sr2+  2.0
  Li+  1.0
  La3+  3.0
  Sb5+  5.0
  O2-  -2.0
loop_
 _atom_site_type_symbol
 _atom_site_label
 _atom_site_symmetry_multiplicity
 _atom_site_fract_x
 _atom_site_fract_y
 _atom_site_fract_z
 _atom_site_occupancy
  Sr2+  Sr0  1  0.37500000  0.12500000  0.12500000  1.0
  Sr2+  Sr0  1  0.37500000  0.62500000  0.12500000  1.0
  Sr2+  Sr1  1  0.25000000  0.18750000  0.62500000  1.0
  Sr2+  Sr1  1  0.25000000  0.68750000  0.62500000  1.0
  Sr2+  Sr2  1  0.62500000  0.18750000  0.75000000  1.0
  Sr2+  Sr2  1  0.62500000  0.68750000  0.75000000  1.0
  Sr2+  Sr3  1  0.87500000  0.06250000  0.25000000  1.0
  Sr2+  Sr3  1  0.87500000  0.56250000  0.25000000  1.0
  Li+  Li4  1  0.21530000  0.24495000  0.43940000  1.0
  Li+  Li4  1  0.21530000  0.74495000  0.43940000  1.0
  Li+  Li5  1  0.55050000  0.49495000  0.27460000  1.0
  Li+  Li5  1  0.55050000  0.99495000  0.27460000  1.0
  Li+  Li6  1  0.71530000  0.38795000  0.22540000  1.0
  Li+  Li6  1  0.71530000  0.88795000  0.22540000  1.0
  Li+  Li7  1  0.56060000  0.14235000  0.01010000  1.0
  Li+  Li7  1  0.56060000  0.64235000  0.01010000  1.0
  Li+  Li8  1  0.22410000  0.21970000  0.94950000  1.0
  Li+  Li8  1  0.22410000  0.71970000  0.94950000  1.0
  Li+  Li9  1  0.01010000  0.22475000  0.22540000  1.0
  Li+  Li9  1  0.01010000  0.72475000  0.22540000  1.0
  Li+  Li10  1  0.27590000  0.02525000  0.56060000  1.0
  Li+  Li10  1  0.27590000  0.52525000  0.56060000  1.0
  Li+  Li11  1  0.94950000  0.36270000  0.01010000  1.0
  Li+  Li11  1  0.94950000  0.86270000  0.01010000  1.0
  Li+  Li12  1  0.27460000  0.36205000  0.78470000  1.0
  Li+  Li12  1  0.27460000  0.86205000  0.78470000  1.0
  Li+  Li13  1  0.51010000  0.39235000  0.06060000  1.0
  Li+  Li13  1  0.51010000  0.89235000  0.06060000  1.0
  Li+  Li14  1  0.77590000  0.35765000  0.72540000  1.0
  Li+  Li14  1  0.77590000  0.85765000  0.72540000  1.0
  Li+  Li15  1  0.72410000  0.47475000  0.43940000  1.0
  Li+  Li15  1  0.72410000  0.97475000  0.43940000  1.0
  Li+  Li16  1  0.21530000  0.11270000  0.77590000  1.0
  Li+  Li16  1  0.21530000  0.61270000  0.77590000  1.0
  Li+  Li17  1  0.43940000  0.11205000  0.44950000  1.0
  Li+  Li17  1  0.43940000  0.61205000  0.44950000  1.0
  Li+  Li18  1  0.87500000  0.37500000  0.12500000  1.0
  Li+  Li18  1  0.87500000  0.87500000  0.12500000  1.0
  Li+  Li19  1  0.62500000  0.12500000  0.37500000  1.0
  Li+  Li19  1  0.62500000  0.62500000  0.37500000  1.0
  Li+  Li20  1  0.12500000  0.18750000  0.25000000  1.0
  Li+  Li20  1  0.12500000  0.68750000  0.25000000  1.0
  Li+  Li21  1  0.37500000  0.06250000  0.75000000  1.0
  Li+  Li21  1  0.37500000  0.56250000  0.75000000  1.0
  Li+  Li22  1  0.75000000  0.43750000  0.62500000  1.0
  Li+  Li22  1  0.75000000  0.93750000  0.62500000  1.0
  Li+  Li23  1  0.25000000  0.31250000  0.87500000  1.0
  Li+  Li23  1  0.25000000  0.81250000  0.87500000  1.0
  Li+  Li24  1  0.37500000  0.37500000  0.62500000  1.0
  Li+  Li24  1  0.37500000  0.87500000  0.62500000  1.0
  Li+  Li25  1  0.87500000  0.31250000  0.75000000  1.0
  Li+  Li25  1  0.87500000  0.81250000  0.75000000  1.0
  Li+  Li26  1  0.25000000  0.06250000  0.37500000  1.0
  Li+  Li26  1  0.25000000  0.56250000  0.37500000  1.0
  Li+  Li27  1  0.75000000  0.18750000  0.12500000  1.0
  Li+  Li27  1  0.75000000  0.68750000  0.12500000  1.0
  La3+  La28  1  0.75000000  0.31250000  0.37500000  1.0
  La3+  La28  1  0.75000000  0.81250000  0.37500000  1.0
  La3+  La29  1  0.25000000  0.43750000  0.12500000  1.0
  La3+  La29  1  0.25000000  0.93750000  0.12500000  1.0
  La3+  La30  1  0.12500000  0.37500000  0.37500000  1.0
  La3+  La30  1  0.12500000  0.87500000  0.37500000  1.0
  La3+  La31  1  0.37500000  0.31250000  0.25000000  1.0
  La3+  La31  1  0.37500000  0.81250000  0.25000000  1.0
  La3+  La32  1  0.12500000  0.43750000  0.75000000  1.0
  La3+  La32  1  0.12500000  0.93750000  0.75000000  1.0
  La3+  La33  1  0.75000000  0.06250000  0.87500000  1.0
  La3+  La33  1  0.75000000  0.56250000  0.87500000  1.0
  La3+  La34  1  0.87500000  0.12500000  0.62500000  1.0
  La3+  La34  1  0.87500000  0.62500000  0.62500000  1.0
  La3+  La35  1  0.62500000  0.37500000  0.87500000  1.0
  La3+  La35  1  0.62500000  0.87500000  0.87500000  1.0
  Sb5+  Sb1  1  0.00000000  0.00000000  0.50000000  1.0
  Sb5+  Sb1  1  0.00000000  0.50000000  0.50000000  1.0
  Sb5+  Sb1  1  0.50000000  0.25000000  0.50000000  1.0
  Sb5+  Sb1  1  0.50000000  0.75000000  0.50000000  1.0
  Sb5+  Sb1  1  0.00000000  0.25000000  0.00000000  1.0
  Sb5+  Sb1  1  0.00000000  0.75000000  0.00000000  1.0
  Sb5+  Sb1  1  0.50000000  0.00000000  0.00000000  1.0
  Sb5+  Sb1  1  0.50000000  0.50000000  0.00000000  1.0
  Sb5+  Sb1  1  0.00000000  0.25000000  0.50000000  1.0
  Sb5+  Sb1  1  0.00000000  0.75000000  0.50000000  1.0
  Sb5+  Sb1  1  0.50000000  0.00000000  0.50000000  1.0
  Sb5+  Sb1  1  0.50000000  0.50000000  0.50000000  1.0
  Sb5+  Sb1  1  0.50000000  0.25000000  0.00000000  1.0
  Sb5+  Sb1  1  0.50000000  0.75000000  0.00000000  1.0
  Sb5+  Sb1  1  0.00000000  0.00000000  0.00000000  1.0
  Sb5+  Sb1  1  0.00000000  0.50000000  0.00000000  1.0
  O2-  O1  1  0.90240000  0.25745000  0.32350000  1.0
  O2-  O1  1  0.90240000  0.75745000  0.32350000  1.0
  O2-  O1  1  0.59760000  0.21055000  0.11250000  1.0
  O2-  O1  1  0.59760000  0.71055000  0.11250000  1.0
  O2-  O1  1  0.30860000  0.49255000  0.38750000  1.0
  O2-  O1  1  0.30860000  0.99255000  0.38750000  1.0
  O2-  O1  1  0.19140000  0.03945000  0.17650000  1.0
  O2-  O1  1  0.19140000  0.53945000  0.17650000  1.0
  O2-  O1  1  0.38750000  0.40430000  0.48510000  1.0
  O2-  O1  1  0.38750000  0.90430000  0.48510000  1.0
  O2-  O1  1  0.17650000  0.34570000  0.57890000  1.0
  O2-  O1  1  0.17650000  0.84570000  0.57890000  1.0
  O2-  O1  1  0.32350000  0.20120000  0.01490000  1.0
  O2-  O1  1  0.32350000  0.70120000  0.01490000  1.0
  O2-  O1  1  0.11250000  0.04880000  0.92110000  1.0
  O2-  O1  1  0.11250000  0.54880000  0.92110000  1.0
  O2-  O1  1  0.57890000  0.33825000  0.19140000  1.0
  O2-  O1  1  0.57890000  0.83825000  0.19140000  1.0
  O2-  O1  1  0.48510000  0.44375000  0.30860000  1.0
  O2-  O1  1  0.48510000  0.94375000  0.30860000  1.0
  O2-  O1  1  0.92110000  0.30625000  0.59760000  1.0
  O2-  O1  1  0.92110000  0.80625000  0.59760000  1.0
  O2-  O1  1  0.01490000  0.41175000  0.90240000  1.0
  O2-  O1  1  0.01490000  0.91175000  0.90240000  1.0
  O2-  O1  1  0.09760000  0.24255000  0.67650000  1.0
  O2-  O1  1  0.09760000  0.74255000  0.67650000  1.0
  O2-  O1  1  0.40240000  0.28945000  0.88750000  1.0
  O2-  O1  1  0.40240000  0.78945000  0.88750000  1.0
  O2-  O1  1  0.69140000  0.00745000  0.61250000  1.0
  O2-  O1  1  0.69140000  0.50745000  0.61250000  1.0
  O2-  O1  1  0.80860000  0.46055000  0.82350000  1.0
  O2-  O1  1  0.80860000  0.96055000  0.82350000  1.0
  O2-  O1  1  0.61250000  0.09570000  0.51490000  1.0
  O2-  O1  1  0.61250000  0.59570000  0.51490000  1.0
  O2-  O1  1  0.82350000  0.15430000  0.42110000  1.0
  O2-  O1  1  0.82350000  0.65430000  0.42110000  1.0
  O2-  O1  1  0.67650000  0.29880000  0.98510000  1.0
  O2-  O1  1  0.67650000  0.79880000  0.98510000  1.0
  O2-  O1  1  0.88750000  0.45120000  0.07890000  1.0
  O2-  O1  1  0.88750000  0.95120000  0.07890000  1.0
  O2-  O1  1  0.42110000  0.16175000  0.80860000  1.0
  O2-  O1  1  0.42110000  0.66175000  0.80860000  1.0
  O2-  O1  1  0.51490000  0.05625000  0.69140000  1.0
  O2-  O1  1  0.51490000  0.55625000  0.69140000  1.0
  O2-  O1  1  0.07890000  0.19375000  0.40240000  1.0
  O2-  O1  1  0.07890000  0.69375000  0.40240000  1.0
  O2-  O1  1  0.98510000  0.08825000  0.09760000  1.0
  O2-  O1  1  0.98510000  0.58825000  0.09760000  1.0
  O2-  O1  1  0.07890000  0.09570000  0.67650000  1.0
  O2-  O1  1  0.07890000  0.59570000  0.67650000  1.0
  O2-  O1  1  0.98510000  0.15430000  0.88750000  1.0
  O2-  O1  1  0.98510000  0.65430000  0.88750000  1.0
  O2-  O1  1  0.42110000  0.29880000  0.61250000  1.0
  O2-  O1  1  0.42110000  0.79880000  0.61250000  1.0
  O2-  O1  1  0.51490000  0.45120000  0.82350000  1.0
  O2-  O1  1  0.51490000  0.95120000  0.82350000  1.0
  O2-  O1  1  0.40240000  0.16175000  0.51490000  1.0
  O2-  O1  1  0.40240000  0.66175000  0.51490000  1.0
  O2-  O1  1  0.09760000  0.05625000  0.42110000  1.0
  O2-  O1  1  0.09760000  0.55625000  0.42110000  1.0
  O2-  O1  1  0.80860000  0.19375000  0.98510000  1.0
  O2-  O1  1  0.80860000  0.69375000  0.98510000  1.0
  O2-  O1  1  0.69140000  0.08825000  0.07890000  1.0
  O2-  O1  1  0.69140000  0.58825000  0.07890000  1.0
  O2-  O1  1  0.88750000  0.24255000  0.80860000  1.0
  O2-  O1  1  0.88750000  0.74255000  0.80860000  1.0
  O2-  O1  1  0.67650000  0.28945000  0.69140000  1.0
  O2-  O1  1  0.67650000  0.78945000  0.69140000  1.0
  O2-  O1  1  0.82350000  0.00745000  0.40240000  1.0
  O2-  O1  1  0.82350000  0.50745000  0.40240000  1.0
  O2-  O1  1  0.61250000  0.46055000  0.09760000  1.0
  O2-  O1  1  0.61250000  0.96055000  0.09760000  1.0
  O2-  O1  1  0.92110000  0.40430000  0.32350000  1.0
  O2-  O1  1  0.92110000  0.90430000  0.32350000  1.0
  O2-  O1  1  0.01490000  0.34570000  0.11250000  1.0
  O2-  O1  1  0.01490000  0.84570000  0.11250000  1.0
  O2-  O1  1  0.57890000  0.20120000  0.38750000  1.0
  O2-  O1  1  0.57890000  0.70120000  0.38750000  1.0
  O2-  O1  1  0.48510000  0.04880000  0.17650000  1.0
  O2-  O1  1  0.48510000  0.54880000  0.17650000  1.0
  O2-  O1  1  0.59760000  0.33825000  0.48510000  1.0
  O2-  O1  1  0.59760000  0.83825000  0.48510000  1.0
  O2-  O1  1  0.90240000  0.44375000  0.57890000  1.0
  O2-  O1  1  0.90240000  0.94375000  0.57890000  1.0
  O2-  O1  1  0.19140000  0.30625000  0.01490000  1.0
  O2-  O1  1  0.19140000  0.80625000  0.01490000  1.0
  O2-  O1  1  0.30860000  0.41175000  0.92110000  1.0
  O2-  O1  1  0.30860000  0.91175000  0.92110000  1.0
  O2-  O1  1  0.11250000  0.25745000  0.19140000  1.0
  O2-  O1  1  0.11250000  0.75745000  0.19140000  1.0
  O2-  O1  1  0.32350000  0.21055000  0.30860000  1.0
  O2-  O1  1  0.32350000  0.71055000  0.30860000  1.0
  O2-  O1  1  0.17650000  0.49255000  0.59760000  1.0
  O2-  O1  1  0.17650000  0.99255000  0.59760000  1.0
  O2-  O1  1  0.38750000  0.03945000  0.90240000  1.0
  O2-  O1  1  0.38750000  0.53945000  0.90240000  1.0
