# generated using pymatgen
data_Li60P10Se7S43Br10
_symmetry_space_group_name_H-M   'P 1'
_cell_length_a   7.08979907
_cell_length_b   35.44899535
_cell_length_c   14.17959814
_cell_angle_alpha   60.00000000
_cell_angle_beta   120.00000000
_cell_angle_gamma   120.00000000
_symmetry_Int_Tables_number   1
_chemical_formula_structural   Li60P10Se7S43Br10
_chemical_formula_sum   'Li60 P10 Se7 S43 Br10'
_cell_volume   2519.92017495
_cell_formula_units_Z   1
loop_
 _symmetry_equiv_pos_site_id
 _symmetry_equiv_pos_as_xyz
  1  'x, y, z'
loop_
 _atom_type_symbol
 _atom_type_oxidation_number
  Li+  1.0
  P5+  5.0
  Se2-  -2.0
  S2-  -2.0
  Br-  -1.0
loop_
 _atom_site_type_symbol
 _atom_site_label
 _atom_site_symmetry_multiplicity
 _atom_site_fract_x
 _atom_site_fract_y
 _atom_site_fract_z
 _atom_site_occupancy
  Li+  Li0  1  0.48300000  0.10340000  0.24150000  1.0
  Li+  Li1  1  0.48300000  0.99660000  0.74150000  1.0
  Li+  Li2  1  0.48300000  0.79660000  0.24150000  1.0
  Li+  Li3  1  0.48300000  0.59660000  0.24150000  1.0
  Li+  Li4  1  0.01374084  0.90439735  0.24405926  1.0
  Li+  Li5  1  0.01700000  0.19660000  0.00850000  1.0
  Li+  Li6  1  0.48300000  0.19660000  0.50850000  1.0
  Li+  Li7  1  0.36070000  0.48218000  0.23745000  1.0
  Li+  Li8  1  0.36070000  0.28218000  0.23745000  1.0
  Li+  Li9  1  0.36070000  0.08218000  0.23745000  1.0
  Li+  Li10  1  0.02510000  0.92786000  0.95545000  1.0
  Li+  Li11  1  0.02510000  0.52786000  0.95545000  1.0
  Li+  Li12  1  0.58910000  0.99498000  0.73745000  1.0
  Li+  Li13  1  0.58910000  0.79498000  0.73745000  1.0
  Li+  Li14  1  0.58910000  0.19498000  0.23745000  1.0
  Li+  Li15  1  0.58910000  0.32786000  0.73745000  1.0
  Li+  Li16  1  0.58910000  0.12786000  0.73745000  1.0
  Li+  Li17  1  0.58842157  0.92669917  0.24479574  1.0
  Li+  Li18  1  0.58910000  0.72786000  0.23745000  1.0
  Li+  Li19  1  0.58910000  0.32786000  0.23745000  1.0
  Li+  Li20  1  0.02510000  0.48218000  0.73745000  1.0
  Li+  Li21  1  0.02510000  0.28218000  0.73745000  1.0
  Li+  Li22  1  0.02510000  0.08218000  0.73745000  1.0
  Li+  Li23  1  0.02510000  0.88218000  0.23745000  1.0
  Li+  Li24  1  0.02498788  0.27795674  0.23690674  1.0
  Li+  Li25  1  0.02510000  0.92786000  0.73745000  1.0
  Li+  Li26  1  0.02510000  0.72786000  0.73745000  1.0
  Li+  Li27  1  0.02510000  0.52786000  0.73745000  1.0
  Li+  Li28  1  0.02281958  0.52669517  0.23608187  1.0
  Li+  Li29  1  0.02510000  0.32786000  0.23745000  1.0
  Li+  Li30  1  0.02510000  0.68218000  0.56965000  1.0
  Li+  Li31  1  0.02510000  0.48218000  0.56965000  1.0
  Li+  Li32  1  0.03110662  0.27906608  0.57027101  1.0
  Li+  Li33  1  0.02472359  0.88143046  0.07277886  1.0
  Li+  Li34  1  0.02510000  0.68218000  0.06965000  1.0
  Li+  Li35  1  0.02510000  0.48218000  0.06965000  1.0
  Li+  Li36  1  0.02510000  0.79498000  0.56965000  1.0
  Li+  Li37  1  0.02510000  0.39498000  0.56965000  1.0
  Li+  Li38  1  0.02669275  0.59580172  0.06830794  1.0
  Li+  Li39  1  0.36070000  0.59498000  0.73745000  1.0
  Li+  Li40  1  0.36070000  0.39498000  0.73745000  1.0
  Li+  Li41  1  0.36070000  0.19498000  0.73745000  1.0
  Li+  Li42  1  0.36070000  0.99498000  0.23745000  1.0
  Li+  Li43  1  0.02510000  0.59498000  0.45545000  1.0
  Li+  Li44  1  0.02144194  0.99679772  0.95513868  1.0
  Li+  Li45  1  0.02510000  0.59498000  0.95545000  1.0
  Li+  Li46  1  0.02510000  0.39498000  0.95545000  1.0
  Li+  Li47  1  0.58910000  0.99498000  0.56965000  1.0
  Li+  Li48  1  0.58910000  0.79498000  0.56965000  1.0
  Li+  Li49  1  0.58910000  0.59498000  0.56965000  1.0
  Li+  Li50  1  0.58910000  0.39498000  0.56965000  1.0
  Li+  Li51  1  0.58910000  0.19498000  0.56965000  1.0
  Li+  Li52  1  0.58910000  0.99498000  0.06965000  1.0
  Li+  Li53  1  0.58910000  0.79498000  0.06965000  1.0
  Li+  Li54  1  0.36070000  0.99498000  0.45545000  1.0
  Li+  Li55  1  0.36235164  0.59309842  0.45640664  1.0
  Li+  Li56  1  0.36070000  0.79498000  0.95545000  1.0
  Li+  Li57  1  0.35886905  0.59619181  0.95574496  1.0
  Li+  Li58  1  0.36224308  0.40246535  0.95512654  1.0
  Li+  Li59  1  0.36070000  0.19498000  0.95545000  1.0
  P5+  P60  1  0.50048279  0.89860646  0.50167535  1.0
  P5+  P61  1  0.50000000  0.70000000  0.50000000  1.0
  P5+  P62  1  0.50000000  0.50000000  0.50000000  1.0
  P5+  P63  1  0.50000000  0.30000000  0.50000000  1.0
  P5+  P64  1  0.50000000  0.10000000  0.50000000  1.0
  P5+  P65  1  0.50117831  0.89880134  0.00040966  1.0
  P5+  P66  1  0.50000000  0.70000000  0.00000000  1.0
  P5+  P67  1  0.50000000  0.50000000  0.00000000  1.0
  P5+  P68  1  0.50000000  0.30000000  0.00000000  1.0
  P5+  P69  1  0.50000000  0.10000000  0.00000000  1.0
  Se2-  Se70  1  0.62464110  0.87507178  0.18696165  1.0
  Se2-  Se71  1  0.62415948  0.07131564  0.18655162  1.0
  Se2-  Se72  1  0.62464110  0.37478466  0.93767945  1.0
  Se2-  Se73  1  0.25000000  0.55000000  0.62500000  1.0
  Se2-  Se74  1  0.25000000  0.15000000  0.62500000  1.0
  Se2-  Se75  1  0.25000000  0.95000000  0.12500000  1.0
  Se2-  Se76  1  0.25000000  0.55000000  0.12500000  1.0
  S2-  S77  1  0.62535892  0.87433460  0.69044188  1.0
  S2-  S78  1  0.62133009  0.67937847  0.68601673  1.0
  S2-  S79  1  0.62464110  0.47507178  0.68696165  1.0
  S2-  S80  1  0.62062163  0.27309273  0.68766253  1.0
  S2-  S81  1  0.62464110  0.07507178  0.68696165  1.0
  S2-  S82  1  0.62464110  0.67507178  0.18696165  1.0
  S2-  S83  1  0.62464110  0.47507178  0.18696165  1.0
  S2-  S84  1  0.62464110  0.27507178  0.18696165  1.0
  S2-  S85  1  0.62464110  0.87507178  0.43767945  1.0
  S2-  S86  1  0.62464110  0.67507178  0.43767945  1.0
  S2-  S87  1  0.62464110  0.47507178  0.43767945  1.0
  S2-  S88  1  0.62464110  0.27507178  0.43767945  1.0
  S2-  S89  1  0.62464110  0.07507178  0.43767945  1.0
  S2-  S90  1  0.62464110  0.87507178  0.93767945  1.0
  S2-  S91  1  0.62464110  0.67507178  0.93767945  1.0
  S2-  S92  1  0.62253315  0.47108416  0.93965882  1.0
  S2-  S93  1  0.62469326  0.27635131  0.93666818  1.0
  S2-  S94  1  0.62588325  0.07798774  0.93784441  1.0
  S2-  S95  1  0.62616707  0.97632485  0.43806160  1.0
  S2-  S96  1  0.62464110  0.77478466  0.43767945  1.0
  S2-  S97  1  0.62606898  0.57310847  0.43970705  1.0
  S2-  S98  1  0.62464110  0.37478466  0.43767945  1.0
  S2-  S99  1  0.62464110  0.17478466  0.43767945  1.0
  S2-  S100  1  0.62464110  0.97478466  0.93767945  1.0
  S2-  S101  1  0.62464110  0.77478466  0.93767945  1.0
  S2-  S102  1  0.62464110  0.57478466  0.93767945  1.0
  S2-  S103  1  0.62464110  0.17478466  0.93767945  1.0
  S2-  S104  1  0.12607670  0.87507178  0.43767945  1.0
  S2-  S105  1  0.12607670  0.67507178  0.43767945  1.0
  S2-  S106  1  0.12607670  0.47507178  0.43767945  1.0
  S2-  S107  1  0.12607670  0.27507178  0.43767945  1.0
  S2-  S108  1  0.12607670  0.07507178  0.43767945  1.0
  S2-  S109  1  0.12426036  0.87181921  0.93656804  1.0
  S2-  S110  1  0.12607670  0.67507178  0.93767945  1.0
  S2-  S111  1  0.12139886  0.47457500  0.93661839  1.0
  S2-  S112  1  0.12607670  0.27507178  0.93767945  1.0
  S2-  S113  1  0.12607670  0.07507178  0.93767945  1.0
  S2-  S114  1  0.25000000  0.95000000  0.62500000  1.0
  S2-  S115  1  0.25108111  0.75367745  0.62535213  1.0
  S2-  S116  1  0.25000000  0.35000000  0.62500000  1.0
  S2-  S117  1  0.25231653  0.74764401  0.12365267  1.0
  S2-  S118  1  0.25000000  0.35000000  0.12500000  1.0
  S2-  S119  1  0.25000000  0.15000000  0.12500000  1.0
  Br-  Br120  1  0.00271628  0.99894738  0.74805166  1.0
  Br-  Br121  1  0.00000000  0.80000000  0.75000000  1.0
  Br-  Br122  1  0.00179637  0.60250664  0.74930498  1.0
  Br-  Br123  1  0.00221538  0.40019484  0.74940211  1.0
  Br-  Br124  1  0.00000000  0.20000000  0.75000000  1.0
  Br-  Br125  1  0.00000000  0.00000000  0.25000000  1.0
  Br-  Br126  1  0.00000000  0.80000000  0.25000000  1.0
  Br-  Br127  1  0.00388083  0.60234091  0.25218534  1.0
  Br-  Br128  1  0.99830069  0.40129341  0.24972110  1.0
  Br-  Br129  1  0.99989328  0.20213686  0.24931159  1.0
