# generated using pymatgen
data_Li39Ge9SbS40
_symmetry_space_group_name_H-M   'P 1'
_cell_length_a   14.03710000
_cell_length_b   7.77693000
_cell_length_c   30.83050000
_cell_angle_alpha   90.00000000
_cell_angle_beta   90.00000000
_cell_angle_gamma   90.00000000
_symmetry_Int_Tables_number   1
_chemical_formula_structural   Li39Ge9SbS40
_chemical_formula_sum   'Li78 Ge18 Sb2 S80'
_cell_volume   3365.62830747
_cell_formula_units_Z   2
loop_
 _symmetry_equiv_pos_site_id
 _symmetry_equiv_pos_as_xyz
  1  'x, y, z'
loop_
 _atom_type_symbol
 _atom_type_oxidation_number
  Li+  1.0
  Ge4+  4.0
  Sb5+  5.0
  S2-  -2.0
loop_
 _atom_site_type_symbol
 _atom_site_label
 _atom_site_symmetry_multiplicity
 _atom_site_fract_x
 _atom_site_fract_y
 _atom_site_fract_z
 _atom_site_occupancy
  Li+  Li0  1  0.17640000  0.48800000  0.63840000  1.0
  Li+  Li1  1  0.82360000  0.51200000  0.96160000  1.0
  Li+  Li2  1  0.67640000  0.48800000  0.46160000  1.0
  Li+  Li3  1  0.82360000  0.98800000  0.96160000  1.0
  Li+  Li4  1  0.17640000  0.01200000  0.83840000  1.0
  Li+  Li5  1  0.67640000  0.01200000  0.06160000  1.0
  Li+  Li6  1  0.67640000  0.01200000  0.66160000  1.0
  Li+  Li7  1  0.00650000  0.97810000  0.69428000  1.0
  Li+  Li8  1  0.00650000  0.97810000  0.89428000  1.0
  Li+  Li9  1  0.99350000  0.02190000  0.10572000  1.0
  Li+  Li10  1  0.99350000  0.02190000  0.30572000  1.0
  Li+  Li11  1  0.49350000  0.02190000  0.19428000  1.0
  Li+  Li12  1  0.49350000  0.02190000  0.39428000  1.0
  Li+  Li13  1  0.50650000  0.97810000  0.00572000  1.0
  Li+  Li14  1  0.50650000  0.97810000  0.60572000  1.0
  Li+  Li15  1  0.99350000  0.47810000  0.50572000  1.0
  Li+  Li16  1  0.99350000  0.47810000  0.70572000  1.0
  Li+  Li17  1  0.00650000  0.52190000  0.09428000  1.0
  Li+  Li18  1  0.00650000  0.52190000  0.29428000  1.0
  Li+  Li19  1  0.50650000  0.52190000  0.00572000  1.0
  Li+  Li20  1  0.50650000  0.52190000  0.40572000  1.0
  Li+  Li21  1  0.50650000  0.52190000  0.60572000  1.0
  Li+  Li22  1  0.50650000  0.52190000  0.80572000  1.0
  Li+  Li23  1  0.49350000  0.47810000  0.59428000  1.0
  Li+  Li24  1  0.49350000  0.47810000  0.79428000  1.0
  Li+  Li25  1  0.17520000  0.99980000  0.06290000  1.0
  Li+  Li26  1  0.17520000  0.99980000  0.26290000  1.0
  Li+  Li27  1  0.17520000  0.99980000  0.46290000  1.0
  Li+  Li28  1  0.17520000  0.99980000  0.66290000  1.0
  Li+  Li29  1  0.82480000  0.00020000  0.13710000  1.0
  Li+  Li30  1  0.82480000  0.00020000  0.33710000  1.0
  Li+  Li31  1  0.82480000  0.00020000  0.53710000  1.0
  Li+  Li32  1  0.82480000  0.00020000  0.93710000  1.0
  Li+  Li33  1  0.32480000  0.00020000  0.16290000  1.0
  Li+  Li34  1  0.32480000  0.00020000  0.36290000  1.0
  Li+  Li35  1  0.32480000  0.00020000  0.76290000  1.0
  Li+  Li36  1  0.32480000  0.00020000  0.96290000  1.0
  Li+  Li37  1  0.67520000  0.99980000  0.03710000  1.0
  Li+  Li38  1  0.67520000  0.99980000  0.43710000  1.0
  Li+  Li39  1  0.67520000  0.99980000  0.63710000  1.0
  Li+  Li40  1  0.67520000  0.99980000  0.83710000  1.0
  Li+  Li41  1  0.82480000  0.49980000  0.13710000  1.0
  Li+  Li42  1  0.82480000  0.49980000  0.33710000  1.0
  Li+  Li43  1  0.82480000  0.49980000  0.53710000  1.0
  Li+  Li44  1  0.82480000  0.49980000  0.73710000  1.0
  Li+  Li45  1  0.82480000  0.49980000  0.93710000  1.0
  Li+  Li46  1  0.17520000  0.50020000  0.06290000  1.0
  Li+  Li47  1  0.17520000  0.50020000  0.26290000  1.0
  Li+  Li48  1  0.17520000  0.50020000  0.46290000  1.0
  Li+  Li49  1  0.67520000  0.50020000  0.03710000  1.0
  Li+  Li50  1  0.67520000  0.50020000  0.23710000  1.0
  Li+  Li51  1  0.67520000  0.50020000  0.43710000  1.0
  Li+  Li52  1  0.67520000  0.50020000  0.63710000  1.0
  Li+  Li53  1  0.67520000  0.50020000  0.83710000  1.0
  Li+  Li54  1  0.32480000  0.49980000  0.16290000  1.0
  Li+  Li55  1  0.32480000  0.49980000  0.36290000  1.0
  Li+  Li56  1  0.32480000  0.49980000  0.56290000  1.0
  Li+  Li57  1  0.32480000  0.49980000  0.76290000  1.0
  Li+  Li58  1  0.32480000  0.49980000  0.96290000  1.0
  Li+  Li59  1  0.41200000  0.75000000  0.07370000  1.0
  Li+  Li60  1  0.41200000  0.75000000  0.27370000  1.0
  Li+  Li61  1  0.41200000  0.75000000  0.47370000  1.0
  Li+  Li62  1  0.41200000  0.75000000  0.67370000  1.0
  Li+  Li63  1  0.41200000  0.75000000  0.87370000  1.0
  Li+  Li64  1  0.58800000  0.25000000  0.12630000  1.0
  Li+  Li65  1  0.58800000  0.25000000  0.52630000  1.0
  Li+  Li66  1  0.58800000  0.25000000  0.72630000  1.0
  Li+  Li67  1  0.58800000  0.25000000  0.92630000  1.0
  Li+  Li68  1  0.08800000  0.25000000  0.17370000  1.0
  Li+  Li69  1  0.08800000  0.25000000  0.37370000  1.0
  Li+  Li70  1  0.08800000  0.25000000  0.57370000  1.0
  Li+  Li71  1  0.08800000  0.25000000  0.77370000  1.0
  Li+  Li72  1  0.08800000  0.25000000  0.97370000  1.0
  Li+  Li73  1  0.91200000  0.75000000  0.02630000  1.0
  Li+  Li74  1  0.91200000  0.75000000  0.22630000  1.0
  Li+  Li75  1  0.91200000  0.75000000  0.42630000  1.0
  Li+  Li76  1  0.91200000  0.75000000  0.62630000  1.0
  Li+  Li77  1  0.91200000  0.75000000  0.82630000  1.0
  Ge4+  Ge78  1  0.41111000  0.25000000  0.07027800  1.0
  Ge4+  Ge79  1  0.41111000  0.25000000  0.47027800  1.0
  Ge4+  Ge80  1  0.41111000  0.25000000  0.67027800  1.0
  Ge4+  Ge81  1  0.41111000  0.25000000  0.87027800  1.0
  Ge4+  Ge82  1  0.58889000  0.75000000  0.12972200  1.0
  Ge4+  Ge83  1  0.58889000  0.75000000  0.32972200  1.0
  Ge4+  Ge84  1  0.58889000  0.75000000  0.72972200  1.0
  Ge4+  Ge85  1  0.58889000  0.75000000  0.92972200  1.0
  Ge4+  Ge86  1  0.08889000  0.75000000  0.17027800  1.0
  Ge4+  Ge87  1  0.08889000  0.75000000  0.37027800  1.0
  Ge4+  Ge88  1  0.08889000  0.75000000  0.57027800  1.0
  Ge4+  Ge89  1  0.08889000  0.75000000  0.77027800  1.0
  Ge4+  Ge90  1  0.08889000  0.75000000  0.97027800  1.0
  Ge4+  Ge91  1  0.91111000  0.25000000  0.02972200  1.0
  Ge4+  Ge92  1  0.91111000  0.25000000  0.22972200  1.0
  Ge4+  Ge93  1  0.91111000  0.25000000  0.42972200  1.0
  Ge4+  Ge94  1  0.91111000  0.25000000  0.62972200  1.0
  Ge4+  Ge95  1  0.91111000  0.25000000  0.82972200  1.0
  Sb5+  Sb96  1  0.41111000  0.25000000  0.27027800  1.0
  Sb5+  Sb97  1  0.58889000  0.75000000  0.52972200  1.0
  S2-  S1  1  0.34317000  0.01560000  0.04446000  1.0
  S2-  S1  1  0.34317000  0.01560000  0.24446000  1.0
  S2-  S1  1  0.34317000  0.01560000  0.44446000  1.0
  S2-  S1  1  0.34317000  0.01560000  0.64446000  1.0
  S2-  S1  1  0.34317000  0.01560000  0.84446000  1.0
  S2-  S1  1  0.65683000  0.98440000  0.15554000  1.0
  S2-  S1  1  0.65683000  0.98440000  0.35554000  1.0
  S2-  S1  1  0.65683000  0.98440000  0.55554000  1.0
  S2-  S1  1  0.65683000  0.98440000  0.75554000  1.0
  S2-  S1  1  0.65683000  0.98440000  0.95554000  1.0
  S2-  S1  1  0.15683000  0.98440000  0.14446000  1.0
  S2-  S1  1  0.15683000  0.98440000  0.34446000  1.0
  S2-  S1  1  0.15683000  0.98440000  0.54446000  1.0
  S2-  S1  1  0.15683000  0.98440000  0.74446000  1.0
  S2-  S1  1  0.15683000  0.98440000  0.94446000  1.0
  S2-  S1  1  0.84317000  0.01560000  0.05554000  1.0
  S2-  S1  1  0.84317000  0.01560000  0.25554000  1.0
  S2-  S1  1  0.84317000  0.01560000  0.45554000  1.0
  S2-  S1  1  0.84317000  0.01560000  0.65554000  1.0
  S2-  S1  1  0.84317000  0.01560000  0.85554000  1.0
  S2-  S1  1  0.65683000  0.51560000  0.15554000  1.0
  S2-  S1  1  0.65683000  0.51560000  0.35554000  1.0
  S2-  S1  1  0.65683000  0.51560000  0.55554000  1.0
  S2-  S1  1  0.65683000  0.51560000  0.75554000  1.0
  S2-  S1  1  0.65683000  0.51560000  0.95554000  1.0
  S2-  S1  1  0.34317000  0.48440000  0.04446000  1.0
  S2-  S1  1  0.34317000  0.48440000  0.24446000  1.0
  S2-  S1  1  0.34317000  0.48440000  0.44446000  1.0
  S2-  S1  1  0.34317000  0.48440000  0.64446000  1.0
  S2-  S1  1  0.34317000  0.48440000  0.84446000  1.0
  S2-  S1  1  0.84317000  0.48440000  0.05554000  1.0
  S2-  S1  1  0.84317000  0.48440000  0.25554000  1.0
  S2-  S1  1  0.84317000  0.48440000  0.45554000  1.0
  S2-  S1  1  0.84317000  0.48440000  0.65554000  1.0
  S2-  S1  1  0.84317000  0.48440000  0.85554000  1.0
  S2-  S1  1  0.15683000  0.51560000  0.14446000  1.0
  S2-  S1  1  0.15683000  0.51560000  0.34446000  1.0
  S2-  S1  1  0.15683000  0.51560000  0.54446000  1.0
  S2-  S1  1  0.15683000  0.51560000  0.74446000  1.0
  S2-  S1  1  0.15683000  0.51560000  0.94446000  1.0
  S2-  S2  1  0.08690000  0.75000000  0.04164000  1.0
  S2-  S2  1  0.08690000  0.75000000  0.24164000  1.0
  S2-  S2  1  0.08690000  0.75000000  0.44164000  1.0
  S2-  S2  1  0.08690000  0.75000000  0.64164000  1.0
  S2-  S2  1  0.08690000  0.75000000  0.84164000  1.0
  S2-  S2  1  0.91310000  0.25000000  0.15836000  1.0
  S2-  S2  1  0.91310000  0.25000000  0.35836000  1.0
  S2-  S2  1  0.91310000  0.25000000  0.55836000  1.0
  S2-  S2  1  0.91310000  0.25000000  0.75836000  1.0
  S2-  S2  1  0.91310000  0.25000000  0.95836000  1.0
  S2-  S2  1  0.41310000  0.25000000  0.14164000  1.0
  S2-  S2  1  0.41310000  0.25000000  0.34164000  1.0
  S2-  S2  1  0.41310000  0.25000000  0.54164000  1.0
  S2-  S2  1  0.41310000  0.25000000  0.74164000  1.0
  S2-  S2  1  0.41310000  0.25000000  0.94164000  1.0
  S2-  S2  1  0.58690000  0.75000000  0.05836000  1.0
  S2-  S2  1  0.58690000  0.75000000  0.25836000  1.0
  S2-  S2  1  0.58690000  0.75000000  0.45836000  1.0
  S2-  S2  1  0.58690000  0.75000000  0.65836000  1.0
  S2-  S2  1  0.58690000  0.75000000  0.85836000  1.0
  S2-  S3  1  0.06160000  0.25000000  0.05328000  1.0
  S2-  S3  1  0.06160000  0.25000000  0.25328000  1.0
  S2-  S3  1  0.06160000  0.25000000  0.45328000  1.0
  S2-  S3  1  0.06160000  0.25000000  0.65328000  1.0
  S2-  S3  1  0.06160000  0.25000000  0.85328000  1.0
  S2-  S3  1  0.93840000  0.75000000  0.14672000  1.0
  S2-  S3  1  0.93840000  0.75000000  0.34672000  1.0
  S2-  S3  1  0.93840000  0.75000000  0.54672000  1.0
  S2-  S3  1  0.93840000  0.75000000  0.74672000  1.0
  S2-  S3  1  0.93840000  0.75000000  0.94672000  1.0
  S2-  S3  1  0.43840000  0.75000000  0.15328000  1.0
  S2-  S3  1  0.43840000  0.75000000  0.35328000  1.0
  S2-  S3  1  0.43840000  0.75000000  0.55328000  1.0
  S2-  S3  1  0.43840000  0.75000000  0.75328000  1.0
  S2-  S3  1  0.43840000  0.75000000  0.95328000  1.0
  S2-  S3  1  0.56160000  0.25000000  0.04672000  1.0
  S2-  S3  1  0.56160000  0.25000000  0.24672000  1.0
  S2-  S3  1  0.56160000  0.25000000  0.44672000  1.0
  S2-  S3  1  0.56160000  0.25000000  0.64672000  1.0
  S2-  S3  1  0.56160000  0.25000000  0.84672000  1.0
