# generated using pymatgen
data_LiB6O9F
_symmetry_space_group_name_H-M   'P 1'
_cell_length_a   15.31090000
_cell_length_b   8.53175000
_cell_length_c   10.78940000
_cell_angle_alpha   90.00000000
_cell_angle_beta   90.00000000
_cell_angle_gamma   90.00000000
_symmetry_Int_Tables_number   1
_chemical_formula_structural   LiB6O9F
_chemical_formula_sum   'Li8 B48 O72 F8'
_cell_volume   1409.40606264
_cell_formula_units_Z   8
loop_
 _symmetry_equiv_pos_site_id
 _symmetry_equiv_pos_as_xyz
  1  'x, y, z'
loop_
 _atom_type_symbol
 _atom_type_oxidation_number
  Li+  1.0
  B3+  3.0
  O2-  -2.0
  F-  -1.0
loop_
 _atom_site_type_symbol
 _atom_site_label
 _atom_site_symmetry_multiplicity
 _atom_site_fract_x
 _atom_site_fract_y
 _atom_site_fract_z
 _atom_site_occupancy
  Li+  Li1  1  0.38235000  0.69770000  0.72650000  1.0
  Li+  Li1  1  0.88235000  0.69770000  0.72650000  1.0
  Li+  Li1  1  0.11765000  0.30230000  0.22650000  1.0
  Li+  Li1  1  0.61765000  0.30230000  0.22650000  1.0
  Li+  Li1  1  0.36765000  0.19770000  0.22650000  1.0
  Li+  Li1  1  0.86765000  0.19770000  0.22650000  1.0
  Li+  Li1  1  0.13235000  0.80230000  0.72650000  1.0
  Li+  Li1  1  0.63235000  0.80230000  0.72650000  1.0
  B3+  B1  1  0.04930000  0.58560000  0.60460000  1.0
  B3+  B1  1  0.54930000  0.58560000  0.60460000  1.0
  B3+  B1  1  0.45070000  0.41440000  0.10460000  1.0
  B3+  B1  1  0.95070000  0.41440000  0.10460000  1.0
  B3+  B1  1  0.20070000  0.08560000  0.10460000  1.0
  B3+  B1  1  0.70070000  0.08560000  0.10460000  1.0
  B3+  B1  1  0.29930000  0.91440000  0.60460000  1.0
  B3+  B1  1  0.79930000  0.91440000  0.60460000  1.0
  B3+  B2  1  0.21930000  0.84900000  0.98440000  1.0
  B3+  B2  1  0.71930000  0.84900000  0.98440000  1.0
  B3+  B2  1  0.28070000  0.15100000  0.48440000  1.0
  B3+  B2  1  0.78070000  0.15100000  0.48440000  1.0
  B3+  B2  1  0.03070000  0.34900000  0.48440000  1.0
  B3+  B2  1  0.53070000  0.34900000  0.48440000  1.0
  B3+  B2  1  0.46930000  0.65100000  0.98440000  1.0
  B3+  B2  1  0.96930000  0.65100000  0.98440000  1.0
  B3+  B3  1  0.43575000  0.39320000  0.65340000  1.0
  B3+  B3  1  0.93575000  0.39320000  0.65340000  1.0
  B3+  B3  1  0.06425000  0.60680000  0.15340000  1.0
  B3+  B3  1  0.56425000  0.60680000  0.15340000  1.0
  B3+  B3  1  0.31425000  0.89320000  0.15340000  1.0
  B3+  B3  1  0.81425000  0.89320000  0.15340000  1.0
  B3+  B3  1  0.18575000  0.10680000  0.65340000  1.0
  B3+  B3  1  0.68575000  0.10680000  0.65340000  1.0
  B3+  B4  1  0.31765000  0.38870000  0.81380000  1.0
  B3+  B4  1  0.81765000  0.38870000  0.81380000  1.0
  B3+  B4  1  0.18235000  0.61130000  0.31380000  1.0
  B3+  B4  1  0.68235000  0.61130000  0.31380000  1.0
  B3+  B4  1  0.43235000  0.88870000  0.31380000  1.0
  B3+  B4  1  0.93235000  0.88870000  0.31380000  1.0
  B3+  B4  1  0.06765000  0.11130000  0.81380000  1.0
  B3+  B4  1  0.56765000  0.11130000  0.81380000  1.0
  B3+  B5  1  0.22885000  0.59510000  0.89280000  1.0
  B3+  B5  1  0.72885000  0.59510000  0.89280000  1.0
  B3+  B5  1  0.27115000  0.40490000  0.39280000  1.0
  B3+  B5  1  0.77115000  0.40490000  0.39280000  1.0
  B3+  B5  1  0.02115000  0.09510000  0.39280000  1.0
  B3+  B5  1  0.52115000  0.09510000  0.39280000  1.0
  B3+  B5  1  0.47885000  0.90490000  0.89280000  1.0
  B3+  B5  1  0.97885000  0.90490000  0.89280000  1.0
  B3+  B6  1  0.27495000  0.65790000  0.48590000  1.0
  B3+  B6  1  0.77495000  0.65790000  0.48590000  1.0
  B3+  B6  1  0.22505000  0.34210000  0.98590000  1.0
  B3+  B6  1  0.72505000  0.34210000  0.98590000  1.0
  B3+  B6  1  0.47505000  0.15790000  0.98590000  1.0
  B3+  B6  1  0.97505000  0.15790000  0.98590000  1.0
  B3+  B6  1  0.02495000  0.84210000  0.48590000  1.0
  B3+  B6  1  0.52495000  0.84210000  0.48590000  1.0
  O2-  O1  1  0.46600500  0.54178000  0.66386000  1.0
  O2-  O1  1  0.96600500  0.54178000  0.66386000  1.0
  O2-  O1  1  0.03399500  0.45822000  0.16386000  1.0
  O2-  O1  1  0.53399500  0.45822000  0.16386000  1.0
  O2-  O1  1  0.28399500  0.04178000  0.16386000  1.0
  O2-  O1  1  0.78399500  0.04178000  0.16386000  1.0
  O2-  O1  1  0.21600500  0.95822000  0.66386000  1.0
  O2-  O1  1  0.71600500  0.95822000  0.66386000  1.0
  O2-  O2  1  0.28198500  0.79404000  0.06501000  1.0
  O2-  O2  1  0.78198500  0.79404000  0.06501000  1.0
  O2-  O2  1  0.21801500  0.20596000  0.56501000  1.0
  O2-  O2  1  0.71801500  0.20596000  0.56501000  1.0
  O2-  O2  1  0.46801500  0.29404000  0.56501000  1.0
  O2-  O2  1  0.96801500  0.29404000  0.56501000  1.0
  O2-  O2  1  0.03198500  0.70596000  0.06501000  1.0
  O2-  O2  1  0.53198500  0.70596000  0.06501000  1.0
  O2-  O3  1  0.43200500  0.51037000  0.99662000  1.0
  O2-  O3  1  0.93200500  0.51037000  0.99662000  1.0
  O2-  O3  1  0.06799500  0.48963000  0.49662000  1.0
  O2-  O3  1  0.56799500  0.48963000  0.49662000  1.0
  O2-  O3  1  0.31799500  0.01037000  0.49662000  1.0
  O2-  O3  1  0.81799500  0.01037000  0.49662000  1.0
  O2-  O3  1  0.18200500  0.98963000  0.99662000  1.0
  O2-  O3  1  0.68200500  0.98963000  0.99662000  1.0
  O2-  O4  1  0.37424500  0.33027000  0.73026000  1.0
  O2-  O4  1  0.87424500  0.33027000  0.73026000  1.0
  O2-  O4  1  0.12575500  0.66973000  0.23026000  1.0
  O2-  O4  1  0.62575500  0.66973000  0.23026000  1.0
  O2-  O4  1  0.37575500  0.83027000  0.23026000  1.0
  O2-  O4  1  0.87575500  0.83027000  0.23026000  1.0
  O2-  O4  1  0.12424500  0.16973000  0.73026000  1.0
  O2-  O4  1  0.62424500  0.16973000  0.73026000  1.0
  O2-  O5  1  0.29184000  0.54528000  0.81049000  1.0
  O2-  O5  1  0.79184000  0.54528000  0.81049000  1.0
  O2-  O5  1  0.20816000  0.45472000  0.31049000  1.0
  O2-  O5  1  0.70816000  0.45472000  0.31049000  1.0
  O2-  O5  1  0.45816000  0.04528000  0.31049000  1.0
  O2-  O5  1  0.95816000  0.04528000  0.31049000  1.0
  O2-  O5  1  0.04184000  0.95472000  0.81049000  1.0
  O2-  O5  1  0.54184000  0.95472000  0.81049000  1.0
  O2-  O6  1  0.20004000  0.74807000  0.88694000  1.0
  O2-  O6  1  0.70004000  0.74807000  0.88694000  1.0
  O2-  O6  1  0.29996000  0.25193000  0.38694000  1.0
  O2-  O6  1  0.79996000  0.25193000  0.38694000  1.0
  O2-  O6  1  0.04996000  0.24807000  0.38694000  1.0
  O2-  O6  1  0.54996000  0.24807000  0.38694000  1.0
  O2-  O6  1  0.45004000  0.75193000  0.88694000  1.0
  O2-  O6  1  0.95004000  0.75193000  0.88694000  1.0
  O2-  O7  1  0.28298000  0.28856000  0.89853000  1.0
  O2-  O7  1  0.78298000  0.28856000  0.89853000  1.0
  O2-  O7  1  0.21702000  0.71144000  0.39853000  1.0
  O2-  O7  1  0.71702000  0.71144000  0.39853000  1.0
  O2-  O7  1  0.46702000  0.78856000  0.39853000  1.0
  O2-  O7  1  0.96702000  0.78856000  0.39853000  1.0
  O2-  O7  1  0.03298000  0.21144000  0.89853000  1.0
  O2-  O7  1  0.53298000  0.21144000  0.89853000  1.0
  O2-  O8  1  0.19545000  0.49486000  0.97875000  1.0
  O2-  O8  1  0.69545000  0.49486000  0.97875000  1.0
  O2-  O8  1  0.30455000  0.50514000  0.47875000  1.0
  O2-  O8  1  0.80455000  0.50514000  0.47875000  1.0
  O2-  O8  1  0.05455000  0.99486000  0.47875000  1.0
  O2-  O8  1  0.55455000  0.99486000  0.47875000  1.0
  O2-  O8  1  0.44545000  0.00514000  0.97875000  1.0
  O2-  O8  1  0.94545000  0.00514000  0.97875000  1.0
  O2-  O9  1  0.30265000  0.74718000  0.58014000  1.0
  O2-  O9  1  0.80265000  0.74718000  0.58014000  1.0
  O2-  O9  1  0.19735000  0.25282000  0.08014000  1.0
  O2-  O9  1  0.69735000  0.25282000  0.08014000  1.0
  O2-  O9  1  0.44735000  0.24718000  0.08014000  1.0
  O2-  O9  1  0.94735000  0.24718000  0.08014000  1.0
  O2-  O9  1  0.05265000  0.75282000  0.58014000  1.0
  O2-  O9  1  0.55265000  0.75282000  0.58014000  1.0
  F-  F1  1  0.11711500  0.56738000  0.69470000  1.0
  F-  F1  1  0.61711500  0.56738000  0.69470000  1.0
  F-  F1  1  0.38288500  0.43262000  0.19470000  1.0
  F-  F1  1  0.88288500  0.43262000  0.19470000  1.0
  F-  F1  1  0.13288500  0.06738000  0.19470000  1.0
  F-  F1  1  0.63288500  0.06738000  0.19470000  1.0
  F-  F1  1  0.36711500  0.93262000  0.69470000  1.0
  F-  F1  1  0.86711500  0.93262000  0.69470000  1.0
