# generated using pymatgen
data_Li6PS5Cl
_symmetry_space_group_name_H-M   'P 1'
_cell_length_a   13.94612562
_cell_length_b   13.94612562
_cell_length_c   13.94612562
_cell_angle_alpha   60.00000000
_cell_angle_beta   120.00000000
_cell_angle_gamma   120.00000000
_symmetry_Int_Tables_number   1
_chemical_formula_structural   Li6PS5Cl
_chemical_formula_sum   'Li48 P8 S40 Cl8'
_cell_volume   1917.98727095
_cell_formula_units_Z   8
loop_
 _symmetry_equiv_pos_site_id
 _symmetry_equiv_pos_as_xyz
  1  'x, y, z'
loop_
 _atom_type_symbol
 _atom_type_oxidation_number
  Li+  1.0
  P5+  5.0
  S2-  -2.0
  Cl-  -1.0
loop_
 _atom_site_type_symbol
 _atom_site_label
 _atom_site_symmetry_multiplicity
 _atom_site_fract_x
 _atom_site_fract_y
 _atom_site_fract_z
 _atom_site_occupancy
  Li+  Li0  1  0.32930000  0.50910000  0.75910000  1.0
  Li+  Li1  1  0.32930000  0.00910000  0.75910000  1.0
  Li+  Li2  1  0.82930000  0.50910000  0.25910000  1.0
  Li+  Li3  1  0.82930000  0.50910000  0.75910000  1.0
  Li+  Li4  1  0.82267176  0.00902782  0.75937151  1.0
  Li+  Li5  1  0.18890000  0.00910000  0.75910000  1.0
  Li+  Li6  1  0.68890000  0.00910000  0.25910000  1.0
  Li+  Li7  1  0.69281794  0.51372458  0.75405276  1.0
  Li+  Li8  1  0.18890000  0.67070000  0.75910000  1.0
  Li+  Li9  1  0.18890000  0.17070000  0.75910000  1.0
  Li+  Li10  1  0.68890000  0.67070000  0.25910000  1.0
  Li+  Li11  1  0.68890000  0.17070000  0.75910000  1.0
  Li+  Li12  1  0.49090000  0.67070000  0.06110000  1.0
  Li+  Li13  1  0.49090000  0.17070000  0.06110000  1.0
  Li+  Li14  1  0.99090000  0.67070000  0.56110000  1.0
  Li+  Li15  1  0.99687267  0.17226243  0.56502124  1.0
  Li+  Li16  1  0.99090000  0.67070000  0.06110000  1.0
  Li+  Li17  1  0.99090000  0.17070000  0.06110000  1.0
  Li+  Li18  1  0.48678976  0.00711402  0.56117226  1.0
  Li+  Li19  1  0.49214242  0.50628684  0.06050417  1.0
  Li+  Li20  1  0.99090000  0.00910000  0.06110000  1.0
  Li+  Li21  1  0.18890000  0.50910000  0.92070000  1.0
  Li+  Li22  1  0.68989900  0.51167704  0.91944786  1.0
  Li+  Li23  1  0.68890000  0.00910000  0.92070000  1.0
  Li+  Li24  1  0.32930000  0.50910000  0.06110000  1.0
  Li+  Li25  1  0.32930000  0.00910000  0.06110000  1.0
  Li+  Li26  1  0.82930000  0.00910000  0.56110000  1.0
  Li+  Li27  1  0.49090000  0.81110000  0.42070000  1.0
  Li+  Li28  1  0.98913841  0.80887659  0.41944712  1.0
  Li+  Li29  1  0.99090000  0.31110000  0.42070000  1.0
  Li+  Li30  1  0.99090000  0.81110000  0.92070000  1.0
  Li+  Li31  1  0.32930000  0.81110000  0.25910000  1.0
  Li+  Li32  1  0.32930000  0.81110000  0.75910000  1.0
  Li+  Li33  1  0.82930000  0.81110000  0.25910000  1.0
  Li+  Li34  1  0.82930000  0.81110000  0.75910000  1.0
  Li+  Li35  1  0.82930000  0.31110000  0.75910000  1.0
  Li+  Li36  1  0.49090000  0.50910000  0.42070000  1.0
  Li+  Li37  1  0.49090000  0.00910000  0.42070000  1.0
  Li+  Li38  1  0.99090000  0.50910000  0.42070000  1.0
  Li+  Li39  1  0.49090000  0.31110000  0.25910000  1.0
  Li+  Li40  1  0.49424592  0.31139496  0.75590117  1.0
  Li+  Li41  1  0.49090000  0.67070000  0.25910000  1.0
  Li+  Li42  1  0.49090000  0.17070000  0.25910000  1.0
  Li+  Li43  1  0.49090000  0.67070000  0.75910000  1.0
  Li+  Li44  1  0.49090000  0.17070000  0.75910000  1.0
  Li+  Li45  1  0.99090000  0.67070000  0.25910000  1.0
  Li+  Li46  1  0.99090000  0.17070000  0.25910000  1.0
  Li+  Li47  1  0.99090000  0.17070000  0.75910000  1.0
  P5+  P48  1  0.25000000  0.75000000  0.50000000  1.0
  P5+  P49  1  0.25000000  0.25000000  0.50000000  1.0
  P5+  P50  1  0.25000000  0.75000000  0.00000000  1.0
  P5+  P51  1  0.24983513  0.24559290  0.99827745  1.0
  P5+  P52  1  0.75000000  0.75000000  0.50000000  1.0
  P5+  P53  1  0.74799449  0.25361192  0.50240377  1.0
  P5+  P54  1  0.75000000  0.75000000  0.00000000  1.0
  P5+  P55  1  0.75057987  0.25125803  0.99788278  1.0
  S2-  S56  1  0.18490955  0.80561284  0.55828373  1.0
  S2-  S57  1  0.19066163  0.30991812  0.55950303  1.0
  S2-  S58  1  0.18375414  0.80711291  0.06212932  1.0
  S2-  S59  1  0.19070000  0.30930000  0.05930000  1.0
  S2-  S60  1  0.69070000  0.80930000  0.55930000  1.0
  S2-  S61  1  0.69070000  0.30930000  0.55930000  1.0
  S2-  S62  1  0.68882600  0.80786790  0.05879565  1.0
  S2-  S63  1  0.69377445  0.30867760  0.05957373  1.0
  S2-  S64  1  0.42790000  0.80930000  0.55930000  1.0
  S2-  S65  1  0.42790000  0.30930000  0.55930000  1.0
  S2-  S66  1  0.42790000  0.80930000  0.05930000  1.0
  S2-  S67  1  0.42790000  0.30930000  0.05930000  1.0
  S2-  S68  1  0.92967515  0.81135975  0.56138059  1.0
  S2-  S69  1  0.92790000  0.30930000  0.55930000  1.0
  S2-  S70  1  0.92790000  0.80930000  0.05930000  1.0
  S2-  S71  1  0.92790000  0.30930000  0.05930000  1.0
  S2-  S72  1  0.19070000  0.80930000  0.32210000  1.0
  S2-  S73  1  0.18713319  0.31391013  0.32242317  1.0
  S2-  S74  1  0.19070000  0.80930000  0.82210000  1.0
  S2-  S75  1  0.19070000  0.30930000  0.82210000  1.0
  S2-  S76  1  0.69070000  0.80930000  0.32210000  1.0
  S2-  S77  1  0.69064817  0.31311347  0.32414967  1.0
  S2-  S78  1  0.69508566  0.81211566  0.81743029  1.0
  S2-  S79  1  0.69070000  0.30930000  0.82210000  1.0
  S2-  S80  1  0.19070000  0.57210000  0.55930000  1.0
  S2-  S81  1  0.19070000  0.07210000  0.55930000  1.0
  S2-  S82  1  0.19070000  0.57210000  0.05930000  1.0
  S2-  S83  1  0.18916259  0.07343711  0.06351807  1.0
  S2-  S84  1  0.69070000  0.57210000  0.55930000  1.0
  S2-  S85  1  0.69070000  0.07210000  0.55930000  1.0
  S2-  S86  1  0.69070000  0.57210000  0.05930000  1.0
  S2-  S87  1  0.69070000  0.07210000  0.05930000  1.0
  S2-  S88  1  0.37629385  0.62491894  0.87135977  1.0
  S2-  S89  1  0.37500000  0.12500000  0.87500000  1.0
  S2-  S90  1  0.87265674  0.12326971  0.87816565  1.0
  S2-  S91  1  0.00000000  0.00000000  0.75000000  1.0
  S2-  S92  1  0.99942028  0.49980743  0.75067715  1.0
  S2-  S93  1  0.00000000  0.50000000  0.25000000  1.0
  S2-  S94  1  0.50000000  0.00000000  0.75000000  1.0
  S2-  S95  1  0.50000000  0.50000000  0.25000000  1.0
  Cl-  Cl96  1  0.37500000  0.62500000  0.37500000  1.0
  Cl-  Cl97  1  0.37500000  0.12500000  0.37500000  1.0
  Cl-  Cl98  1  0.87737911  0.62087871  0.37669221  1.0
  Cl-  Cl99  1  0.87500000  0.12500000  0.37500000  1.0
  Cl-  Cl100  1  0.87210822  0.62698050  0.87494579  1.0
  Cl-  Cl101  1  0.00000000  0.00000000  0.25000000  1.0
  Cl-  Cl102  1  0.50000000  0.50000000  0.75000000  1.0
  Cl-  Cl103  1  0.50000000  0.00000000  0.25000000  1.0
