# generated using pymatgen
data_SrLi6La2Nb2O12
_symmetry_space_group_name_H-M   'P 1'
_cell_length_a   11.11178143
_cell_length_b   22.22356286
_cell_length_c   11.11178143
_cell_angle_alpha   109.47122063
_cell_angle_beta   109.47122063
_cell_angle_gamma   109.47122063
_symmetry_Int_Tables_number   1
_chemical_formula_structural   SrLi6La2Nb2O12
_chemical_formula_sum   'Sr8 Li48 La16 Nb16 O96'
_cell_volume   2112.31739538
_cell_formula_units_Z   8
loop_
 _symmetry_equiv_pos_site_id
 _symmetry_equiv_pos_as_xyz
  1  'x, y, z'
loop_
 _atom_type_symbol
 _atom_type_oxidation_number
  Sr2+  2.0
  Li+  1.0
  La3+  3.0
  Nb5+  5.0
  O2-  -2.0
loop_
 _atom_site_type_symbol
 _atom_site_label
 _atom_site_symmetry_multiplicity
 _atom_site_fract_x
 _atom_site_fract_y
 _atom_site_fract_z
 _atom_site_occupancy
  Sr2+  Sr0  1  0.75000000  0.31250000  0.37500000  1.0
  Sr2+  Sr0  1  0.75000000  0.81250000  0.37500000  1.0
  Sr2+  Sr1  1  0.37500000  0.31250000  0.25000000  1.0
  Sr2+  Sr1  1  0.37500000  0.81250000  0.25000000  1.0
  Sr2+  Sr2  1  0.87500000  0.12500000  0.62500000  1.0
  Sr2+  Sr2  1  0.87500000  0.62500000  0.62500000  1.0
  Sr2+  Sr3  1  0.87500000  0.06250000  0.25000000  1.0
  Sr2+  Sr3  1  0.87500000  0.56250000  0.25000000  1.0
  Li+  Li4  1  0.47940000  0.11030000  0.39280000  1.0
  Li+  Li4  1  0.47940000  0.61030000  0.39280000  1.0
  Li+  Li5  1  0.60720000  0.01030000  0.27940000  1.0
  Li+  Li5  1  0.60720000  0.51030000  0.27940000  1.0
  Li+  Li6  1  0.22060000  0.12060000  0.32780000  1.0
  Li+  Li6  1  0.22060000  0.62060000  0.32780000  1.0
  Li+  Li7  1  0.58660000  0.12940000  0.97940000  1.0
  Li+  Li7  1  0.58660000  0.62940000  0.97940000  1.0
  Li+  Li8  1  0.27940000  0.05360000  0.52060000  1.0
  Li+  Li8  1  0.27940000  0.55360000  0.52060000  1.0
  Li+  Li9  1  0.97940000  0.04330000  0.75880000  1.0
  Li+  Li9  1  0.97940000  0.54330000  0.75880000  1.0
  Li+  Li10  1  0.17220000  0.20670000  0.89280000  1.0
  Li+  Li10  1  0.17220000  0.70670000  0.89280000  1.0
  Li+  Li11  1  0.97940000  0.19640000  0.22060000  1.0
  Li+  Li11  1  0.97940000  0.69640000  0.22060000  1.0
  Li+  Li12  1  0.75880000  0.38970000  0.17220000  1.0
  Li+  Li12  1  0.75880000  0.88970000  0.17220000  1.0
  Li+  Li13  1  0.74120000  0.20670000  0.52060000  1.0
  Li+  Li13  1  0.74120000  0.70670000  0.52060000  1.0
  Li+  Li14  1  0.27940000  0.33610000  0.75880000  1.0
  Li+  Li14  1  0.27940000  0.83610000  0.75880000  1.0
  Li+  Li15  1  0.58660000  0.41390000  0.60720000  1.0
  Li+  Li15  1  0.58660000  0.91390000  0.60720000  1.0
  Li+  Li16  1  0.02060000  0.30360000  0.77940000  1.0
  Li+  Li16  1  0.02060000  0.80360000  0.77940000  1.0
  Li+  Li17  1  0.67220000  0.44640000  0.41340000  1.0
  Li+  Li17  1  0.67220000  0.94640000  0.41340000  1.0
  Li+  Li18  1  0.10720000  0.13970000  0.02060000  1.0
  Li+  Li18  1  0.10720000  0.63970000  0.02060000  1.0
  Li+  Li19  1  0.25880000  0.29330000  0.47940000  1.0
  Li+  Li19  1  0.25880000  0.79330000  0.47940000  1.0
  Li+  Li20  1  0.08660000  0.48970000  0.25880000  1.0
  Li+  Li20  1  0.08660000  0.98970000  0.25880000  1.0
  Li+  Li21  1  0.87500000  0.37500000  0.12500000  1.0
  Li+  Li21  1  0.87500000  0.87500000  0.12500000  1.0
  Li+  Li22  1  0.62500000  0.12500000  0.37500000  1.0
  Li+  Li22  1  0.62500000  0.62500000  0.37500000  1.0
  Li+  Li23  1  0.12500000  0.18750000  0.25000000  1.0
  Li+  Li23  1  0.12500000  0.68750000  0.25000000  1.0
  Li+  Li24  1  0.37500000  0.06250000  0.75000000  1.0
  Li+  Li24  1  0.37500000  0.56250000  0.75000000  1.0
  Li+  Li25  1  0.25000000  0.31250000  0.87500000  1.0
  Li+  Li25  1  0.25000000  0.81250000  0.87500000  1.0
  Li+  Li26  1  0.12500000  0.12500000  0.87500000  1.0
  Li+  Li26  1  0.12500000  0.62500000  0.87500000  1.0
  Li+  Li27  1  0.75000000  0.18750000  0.12500000  1.0
  Li+  Li27  1  0.75000000  0.68750000  0.12500000  1.0
  La3+  La28  1  0.25000000  0.43750000  0.12500000  1.0
  La3+  La28  1  0.25000000  0.93750000  0.12500000  1.0
  La3+  La29  1  0.12500000  0.37500000  0.37500000  1.0
  La3+  La29  1  0.12500000  0.87500000  0.37500000  1.0
  La3+  La30  1  0.37500000  0.12500000  0.12500000  1.0
  La3+  La30  1  0.37500000  0.62500000  0.12500000  1.0
  La3+  La31  1  0.12500000  0.43750000  0.75000000  1.0
  La3+  La31  1  0.12500000  0.93750000  0.75000000  1.0
  La3+  La32  1  0.25000000  0.18750000  0.62500000  1.0
  La3+  La32  1  0.25000000  0.68750000  0.62500000  1.0
  La3+  La33  1  0.75000000  0.06250000  0.87500000  1.0
  La3+  La33  1  0.75000000  0.56250000  0.87500000  1.0
  La3+  La34  1  0.62500000  0.37500000  0.87500000  1.0
  La3+  La34  1  0.62500000  0.87500000  0.87500000  1.0
  La3+  La35  1  0.62500000  0.18750000  0.75000000  1.0
  La3+  La35  1  0.62500000  0.68750000  0.75000000  1.0
  Nb5+  Nb1  1  0.00000000  0.00000000  0.50000000  1.0
  Nb5+  Nb1  1  0.00000000  0.50000000  0.50000000  1.0
  Nb5+  Nb1  1  0.50000000  0.25000000  0.50000000  1.0
  Nb5+  Nb1  1  0.50000000  0.75000000  0.50000000  1.0
  Nb5+  Nb1  1  0.00000000  0.25000000  0.00000000  1.0
  Nb5+  Nb1  1  0.00000000  0.75000000  0.00000000  1.0
  Nb5+  Nb1  1  0.50000000  0.00000000  0.00000000  1.0
  Nb5+  Nb1  1  0.50000000  0.50000000  0.00000000  1.0
  Nb5+  Nb1  1  0.00000000  0.25000000  0.50000000  1.0
  Nb5+  Nb1  1  0.00000000  0.75000000  0.50000000  1.0
  Nb5+  Nb1  1  0.50000000  0.00000000  0.50000000  1.0
  Nb5+  Nb1  1  0.50000000  0.50000000  0.50000000  1.0
  Nb5+  Nb1  1  0.50000000  0.25000000  0.00000000  1.0
  Nb5+  Nb1  1  0.50000000  0.75000000  0.00000000  1.0
  Nb5+  Nb1  1  0.00000000  0.00000000  0.00000000  1.0
  Nb5+  Nb1  1  0.00000000  0.50000000  0.00000000  1.0
  O2-  O1  1  0.90495000  0.25883000  0.32319000  1.0
  O2-  O1  1  0.90495000  0.75883000  0.32319000  1.0
  O2-  O1  1  0.59505000  0.20912000  0.11271000  1.0
  O2-  O1  1  0.59505000  0.70912000  0.11271000  1.0
  O2-  O1  1  0.30553000  0.49117000  0.38729000  1.0
  O2-  O1  1  0.30553000  0.99117000  0.38729000  1.0
  O2-  O1  1  0.19447000  0.04088000  0.17681000  1.0
  O2-  O1  1  0.19447000  0.54088000  0.17681000  1.0
  O2-  O1  1  0.38729000  0.40276500  0.48234000  1.0
  O2-  O1  1  0.38729000  0.90276500  0.48234000  1.0
  O2-  O1  1  0.17681000  0.34723500  0.58176000  1.0
  O2-  O1  1  0.17681000  0.84723500  0.58176000  1.0
  O2-  O1  1  0.32319000  0.20247500  0.01766000  1.0
  O2-  O1  1  0.32319000  0.70247500  0.01766000  1.0
  O2-  O1  1  0.11271000  0.04752500  0.91824000  1.0
  O2-  O1  1  0.11271000  0.54752500  0.91824000  1.0
  O2-  O1  1  0.58176000  0.33840500  0.19447000  1.0
  O2-  O1  1  0.58176000  0.83840500  0.19447000  1.0
  O2-  O1  1  0.48234000  0.44364500  0.30553000  1.0
  O2-  O1  1  0.48234000  0.94364500  0.30553000  1.0
  O2-  O1  1  0.91824000  0.30635500  0.59505000  1.0
  O2-  O1  1  0.91824000  0.80635500  0.59505000  1.0
  O2-  O1  1  0.01766000  0.41159500  0.90495000  1.0
  O2-  O1  1  0.01766000  0.91159500  0.90495000  1.0
  O2-  O1  1  0.09505000  0.24117000  0.67681000  1.0
  O2-  O1  1  0.09505000  0.74117000  0.67681000  1.0
  O2-  O1  1  0.40495000  0.29088000  0.88729000  1.0
  O2-  O1  1  0.40495000  0.79088000  0.88729000  1.0
  O2-  O1  1  0.69447000  0.00883000  0.61271000  1.0
  O2-  O1  1  0.69447000  0.50883000  0.61271000  1.0
  O2-  O1  1  0.80553000  0.45912000  0.82319000  1.0
  O2-  O1  1  0.80553000  0.95912000  0.82319000  1.0
  O2-  O1  1  0.61271000  0.09723500  0.51766000  1.0
  O2-  O1  1  0.61271000  0.59723500  0.51766000  1.0
  O2-  O1  1  0.82319000  0.15276500  0.41824000  1.0
  O2-  O1  1  0.82319000  0.65276500  0.41824000  1.0
  O2-  O1  1  0.67681000  0.29752500  0.98234000  1.0
  O2-  O1  1  0.67681000  0.79752500  0.98234000  1.0
  O2-  O1  1  0.88729000  0.45247500  0.08176000  1.0
  O2-  O1  1  0.88729000  0.95247500  0.08176000  1.0
  O2-  O1  1  0.41824000  0.16159500  0.80553000  1.0
  O2-  O1  1  0.41824000  0.66159500  0.80553000  1.0
  O2-  O1  1  0.51766000  0.05635500  0.69447000  1.0
  O2-  O1  1  0.51766000  0.55635500  0.69447000  1.0
  O2-  O1  1  0.08176000  0.19364500  0.40495000  1.0
  O2-  O1  1  0.08176000  0.69364500  0.40495000  1.0
  O2-  O1  1  0.98234000  0.08840500  0.09505000  1.0
  O2-  O1  1  0.98234000  0.58840500  0.09505000  1.0
  O2-  O1  1  0.08176000  0.09723500  0.67681000  1.0
  O2-  O1  1  0.08176000  0.59723500  0.67681000  1.0
  O2-  O1  1  0.98234000  0.15276500  0.88729000  1.0
  O2-  O1  1  0.98234000  0.65276500  0.88729000  1.0
  O2-  O1  1  0.41824000  0.29752500  0.61271000  1.0
  O2-  O1  1  0.41824000  0.79752500  0.61271000  1.0
  O2-  O1  1  0.51766000  0.45247500  0.82319000  1.0
  O2-  O1  1  0.51766000  0.95247500  0.82319000  1.0
  O2-  O1  1  0.40495000  0.16159500  0.51766000  1.0
  O2-  O1  1  0.40495000  0.66159500  0.51766000  1.0
  O2-  O1  1  0.09505000  0.05635500  0.41824000  1.0
  O2-  O1  1  0.09505000  0.55635500  0.41824000  1.0
  O2-  O1  1  0.80553000  0.19364500  0.98234000  1.0
  O2-  O1  1  0.80553000  0.69364500  0.98234000  1.0
  O2-  O1  1  0.69447000  0.08840500  0.08176000  1.0
  O2-  O1  1  0.69447000  0.58840500  0.08176000  1.0
  O2-  O1  1  0.88729000  0.24117000  0.80553000  1.0
  O2-  O1  1  0.88729000  0.74117000  0.80553000  1.0
  O2-  O1  1  0.67681000  0.29088000  0.69447000  1.0
  O2-  O1  1  0.67681000  0.79088000  0.69447000  1.0
  O2-  O1  1  0.82319000  0.00883000  0.40495000  1.0
  O2-  O1  1  0.82319000  0.50883000  0.40495000  1.0
  O2-  O1  1  0.61271000  0.45912000  0.09505000  1.0
  O2-  O1  1  0.61271000  0.95912000  0.09505000  1.0
  O2-  O1  1  0.91824000  0.40276500  0.32319000  1.0
  O2-  O1  1  0.91824000  0.90276500  0.32319000  1.0
  O2-  O1  1  0.01766000  0.34723500  0.11271000  1.0
  O2-  O1  1  0.01766000  0.84723500  0.11271000  1.0
  O2-  O1  1  0.58176000  0.20247500  0.38729000  1.0
  O2-  O1  1  0.58176000  0.70247500  0.38729000  1.0
  O2-  O1  1  0.48234000  0.04752500  0.17681000  1.0
  O2-  O1  1  0.48234000  0.54752500  0.17681000  1.0
  O2-  O1  1  0.59505000  0.33840500  0.48234000  1.0
  O2-  O1  1  0.59505000  0.83840500  0.48234000  1.0
  O2-  O1  1  0.90495000  0.44364500  0.58176000  1.0
  O2-  O1  1  0.90495000  0.94364500  0.58176000  1.0
  O2-  O1  1  0.19447000  0.30635500  0.01766000  1.0
  O2-  O1  1  0.19447000  0.80635500  0.01766000  1.0
  O2-  O1  1  0.30553000  0.41159500  0.91824000  1.0
  O2-  O1  1  0.30553000  0.91159500  0.91824000  1.0
  O2-  O1  1  0.11271000  0.25883000  0.19447000  1.0
  O2-  O1  1  0.11271000  0.75883000  0.19447000  1.0
  O2-  O1  1  0.32319000  0.20912000  0.30553000  1.0
  O2-  O1  1  0.32319000  0.70912000  0.30553000  1.0
  O2-  O1  1  0.17681000  0.49117000  0.59505000  1.0
  O2-  O1  1  0.17681000  0.99117000  0.59505000  1.0
  O2-  O1  1  0.38729000  0.04088000  0.90495000  1.0
  O2-  O1  1  0.38729000  0.54088000  0.90495000  1.0
