# generated using pymatgen
data_Li6Zr2O7
_symmetry_space_group_name_H-M   'P 1'
_cell_length_a   11.98200000
_cell_length_b   18.05527020
_cell_length_c   10.20400000
_cell_angle_alpha   98.87834545
_cell_angle_beta   90.00000000
_cell_angle_gamma   119.84938381
_symmetry_Int_Tables_number   1
_chemical_formula_structural   Li6Zr2O7
_chemical_formula_sum   'Li72 Zr24 O84'
_cell_volume   1884.10274780
_cell_formula_units_Z   12
loop_
 _symmetry_equiv_pos_site_id
 _symmetry_equiv_pos_as_xyz
  1  'x, y, z'
loop_
 _atom_type_symbol
 _atom_type_oxidation_number
  Li+  1.0
  Zr4+  4.0
  O2-  -2.0
loop_
 _atom_site_type_symbol
 _atom_site_label
 _atom_site_symmetry_multiplicity
 _atom_site_fract_x
 _atom_site_fract_y
 _atom_site_fract_z
 _atom_site_occupancy
  Li+  Li1  1  0.08090000  0.19573333  0.10540000  1.0
  Li+  Li1  1  0.08090000  0.52906667  0.10540000  1.0
  Li+  Li1  1  0.08090000  0.86240000  0.10540000  1.0
  Li+  Li1  1  0.58090000  0.19573333  0.10540000  1.0
  Li+  Li1  1  0.58090000  0.52906667  0.10540000  1.0
  Li+  Li1  1  0.58090000  0.86240000  0.10540000  1.0
  Li+  Li1  1  0.28730000  0.13760000  0.39460000  1.0
  Li+  Li1  1  0.28730000  0.47093333  0.39460000  1.0
  Li+  Li1  1  0.28730000  0.80426667  0.39460000  1.0
  Li+  Li1  1  0.78730000  0.13760000  0.39460000  1.0
  Li+  Li1  1  0.78730000  0.47093333  0.39460000  1.0
  Li+  Li1  1  0.78730000  0.80426667  0.39460000  1.0
  Li+  Li1  1  0.41910000  0.13760000  0.89460000  1.0
  Li+  Li1  1  0.41910000  0.47093333  0.89460000  1.0
  Li+  Li1  1  0.41910000  0.80426667  0.89460000  1.0
  Li+  Li1  1  0.91910000  0.13760000  0.89460000  1.0
  Li+  Li1  1  0.91910000  0.47093333  0.89460000  1.0
  Li+  Li1  1  0.91910000  0.80426667  0.89460000  1.0
  Li+  Li1  1  0.21270000  0.19573333  0.60540000  1.0
  Li+  Li1  1  0.21270000  0.52906667  0.60540000  1.0
  Li+  Li1  1  0.21270000  0.86240000  0.60540000  1.0
  Li+  Li1  1  0.71270000  0.19573333  0.60540000  1.0
  Li+  Li1  1  0.71270000  0.52906667  0.60540000  1.0
  Li+  Li1  1  0.71270000  0.86240000  0.60540000  1.0
  Li+  Li2  1  0.35305000  0.04340000  0.08370000  1.0
  Li+  Li2  1  0.35305000  0.37673333  0.08370000  1.0
  Li+  Li2  1  0.35305000  0.71006667  0.08370000  1.0
  Li+  Li2  1  0.85305000  0.04340000  0.08370000  1.0
  Li+  Li2  1  0.85305000  0.37673333  0.08370000  1.0
  Li+  Li2  1  0.85305000  0.71006667  0.08370000  1.0
  Li+  Li2  1  0.28795000  0.28993333  0.41630000  1.0
  Li+  Li2  1  0.28795000  0.62326667  0.41630000  1.0
  Li+  Li2  1  0.28795000  0.95660000  0.41630000  1.0
  Li+  Li2  1  0.78795000  0.28993333  0.41630000  1.0
  Li+  Li2  1  0.78795000  0.62326667  0.41630000  1.0
  Li+  Li2  1  0.78795000  0.95660000  0.41630000  1.0
  Li+  Li2  1  0.14695000  0.28993333  0.91630000  1.0
  Li+  Li2  1  0.14695000  0.62326667  0.91630000  1.0
  Li+  Li2  1  0.14695000  0.95660000  0.91630000  1.0
  Li+  Li2  1  0.64695000  0.28993333  0.91630000  1.0
  Li+  Li2  1  0.64695000  0.62326667  0.91630000  1.0
  Li+  Li2  1  0.64695000  0.95660000  0.91630000  1.0
  Li+  Li2  1  0.21205000  0.04340000  0.58370000  1.0
  Li+  Li2  1  0.21205000  0.37673333  0.58370000  1.0
  Li+  Li2  1  0.21205000  0.71006667  0.58370000  1.0
  Li+  Li2  1  0.71205000  0.04340000  0.58370000  1.0
  Li+  Li2  1  0.71205000  0.37673333  0.58370000  1.0
  Li+  Li2  1  0.71205000  0.71006667  0.58370000  1.0
  Li+  Li3  1  0.01595000  0.28973333  0.39810000  1.0
  Li+  Li3  1  0.01595000  0.62306667  0.39810000  1.0
  Li+  Li3  1  0.01595000  0.95640000  0.39810000  1.0
  Li+  Li3  1  0.51595000  0.28973333  0.39810000  1.0
  Li+  Li3  1  0.51595000  0.62306667  0.39810000  1.0
  Li+  Li3  1  0.51595000  0.95640000  0.39810000  1.0
  Li+  Li3  1  0.08135000  0.04360000  0.10190000  1.0
  Li+  Li3  1  0.08135000  0.37693333  0.10190000  1.0
  Li+  Li3  1  0.08135000  0.71026667  0.10190000  1.0
  Li+  Li3  1  0.58135000  0.04360000  0.10190000  1.0
  Li+  Li3  1  0.58135000  0.37693333  0.10190000  1.0
  Li+  Li3  1  0.58135000  0.71026667  0.10190000  1.0
  Li+  Li3  1  0.48405000  0.04360000  0.60190000  1.0
  Li+  Li3  1  0.48405000  0.37693333  0.60190000  1.0
  Li+  Li3  1  0.48405000  0.71026667  0.60190000  1.0
  Li+  Li3  1  0.98405000  0.04360000  0.60190000  1.0
  Li+  Li3  1  0.98405000  0.37693333  0.60190000  1.0
  Li+  Li3  1  0.98405000  0.71026667  0.60190000  1.0
  Li+  Li3  1  0.41865000  0.28973333  0.89810000  1.0
  Li+  Li3  1  0.41865000  0.62306667  0.89810000  1.0
  Li+  Li3  1  0.41865000  0.95640000  0.89810000  1.0
  Li+  Li3  1  0.91865000  0.28973333  0.89810000  1.0
  Li+  Li3  1  0.91865000  0.62306667  0.89810000  1.0
  Li+  Li3  1  0.91865000  0.95640000  0.89810000  1.0
  Zr4+  Zr1  1  0.34744000  0.21099333  0.13531000  1.0
  Zr4+  Zr1  1  0.34744000  0.54432667  0.13531000  1.0
  Zr4+  Zr1  1  0.34744000  0.87766000  0.13531000  1.0
  Zr4+  Zr1  1  0.84744000  0.21099333  0.13531000  1.0
  Zr4+  Zr1  1  0.84744000  0.54432667  0.13531000  1.0
  Zr4+  Zr1  1  0.84744000  0.87766000  0.13531000  1.0
  Zr4+  Zr1  1  0.03095000  0.12234000  0.36469000  1.0
  Zr4+  Zr1  1  0.03095000  0.45567333  0.36469000  1.0
  Zr4+  Zr1  1  0.03095000  0.78900667  0.36469000  1.0
  Zr4+  Zr1  1  0.53095000  0.12234000  0.36469000  1.0
  Zr4+  Zr1  1  0.53095000  0.45567333  0.36469000  1.0
  Zr4+  Zr1  1  0.53095000  0.78900667  0.36469000  1.0
  Zr4+  Zr1  1  0.15256000  0.12234000  0.86469000  1.0
  Zr4+  Zr1  1  0.15256000  0.45567333  0.86469000  1.0
  Zr4+  Zr1  1  0.15256000  0.78900667  0.86469000  1.0
  Zr4+  Zr1  1  0.65256000  0.12234000  0.86469000  1.0
  Zr4+  Zr1  1  0.65256000  0.45567333  0.86469000  1.0
  Zr4+  Zr1  1  0.65256000  0.78900667  0.86469000  1.0
  Zr4+  Zr1  1  0.46905000  0.21099333  0.63531000  1.0
  Zr4+  Zr1  1  0.46905000  0.54432667  0.63531000  1.0
  Zr4+  Zr1  1  0.46905000  0.87766000  0.63531000  1.0
  Zr4+  Zr1  1  0.96905000  0.21099333  0.63531000  1.0
  Zr4+  Zr1  1  0.96905000  0.54432667  0.63531000  1.0
  Zr4+  Zr1  1  0.96905000  0.87766000  0.63531000  1.0
  O2-  O1  1  0.43100000  0.16673333  0.25470000  1.0
  O2-  O1  1  0.43100000  0.50006667  0.25470000  1.0
  O2-  O1  1  0.43100000  0.83340000  0.25470000  1.0
  O2-  O1  1  0.93100000  0.16673333  0.25470000  1.0
  O2-  O1  1  0.93100000  0.50006667  0.25470000  1.0
  O2-  O1  1  0.93100000  0.83340000  0.25470000  1.0
  O2-  O1  1  0.18090000  0.16660000  0.24530000  1.0
  O2-  O1  1  0.18090000  0.49993333  0.24530000  1.0
  O2-  O1  1  0.18090000  0.83326667  0.24530000  1.0
  O2-  O1  1  0.68090000  0.16660000  0.24530000  1.0
  O2-  O1  1  0.68090000  0.49993333  0.24530000  1.0
  O2-  O1  1  0.68090000  0.83326667  0.24530000  1.0
  O2-  O1  1  0.06900000  0.16660000  0.74530000  1.0
  O2-  O1  1  0.06900000  0.49993333  0.74530000  1.0
  O2-  O1  1  0.06900000  0.83326667  0.74530000  1.0
  O2-  O1  1  0.56900000  0.16660000  0.74530000  1.0
  O2-  O1  1  0.56900000  0.49993333  0.74530000  1.0
  O2-  O1  1  0.56900000  0.83326667  0.74530000  1.0
  O2-  O1  1  0.31910000  0.16673333  0.75470000  1.0
  O2-  O1  1  0.31910000  0.50006667  0.75470000  1.0
  O2-  O1  1  0.31910000  0.83340000  0.75470000  1.0
  O2-  O1  1  0.81910000  0.16673333  0.75470000  1.0
  O2-  O1  1  0.81910000  0.50006667  0.75470000  1.0
  O2-  O1  1  0.81910000  0.83340000  0.75470000  1.0
  O2-  O2  1  0.25015000  0.24446667  0.99820000  1.0
  O2-  O2  1  0.25015000  0.57780000  0.99820000  1.0
  O2-  O2  1  0.25015000  0.91113333  0.99820000  1.0
  O2-  O2  1  0.75015000  0.24446667  0.99820000  1.0
  O2-  O2  1  0.75015000  0.57780000  0.99820000  1.0
  O2-  O2  1  0.75015000  0.91113333  0.99820000  1.0
  O2-  O2  1  0.38345000  0.08886667  0.50180000  1.0
  O2-  O2  1  0.38345000  0.42220000  0.50180000  1.0
  O2-  O2  1  0.38345000  0.75553333  0.50180000  1.0
  O2-  O2  1  0.88345000  0.08886667  0.50180000  1.0
  O2-  O2  1  0.88345000  0.42220000  0.50180000  1.0
  O2-  O2  1  0.88345000  0.75553333  0.50180000  1.0
  O2-  O2  1  0.24985000  0.08886667  0.00180000  1.0
  O2-  O2  1  0.24985000  0.42220000  0.00180000  1.0
  O2-  O2  1  0.24985000  0.75553333  0.00180000  1.0
  O2-  O2  1  0.74985000  0.08886667  0.00180000  1.0
  O2-  O2  1  0.74985000  0.42220000  0.00180000  1.0
  O2-  O2  1  0.74985000  0.75553333  0.00180000  1.0
  O2-  O2  1  0.11655000  0.24446667  0.49820000  1.0
  O2-  O2  1  0.11655000  0.57780000  0.49820000  1.0
  O2-  O2  1  0.11655000  0.91113333  0.49820000  1.0
  O2-  O2  1  0.61655000  0.24446667  0.49820000  1.0
  O2-  O2  1  0.61655000  0.57780000  0.49820000  1.0
  O2-  O2  1  0.61655000  0.91113333  0.49820000  1.0
  O2-  O3  1  0.00045000  0.25213333  0.02250000  1.0
  O2-  O3  1  0.00045000  0.58546667  0.02250000  1.0
  O2-  O3  1  0.00045000  0.91880000  0.02250000  1.0
  O2-  O3  1  0.50045000  0.25213333  0.02250000  1.0
  O2-  O3  1  0.50045000  0.58546667  0.02250000  1.0
  O2-  O3  1  0.50045000  0.91880000  0.02250000  1.0
  O2-  O3  1  0.12225000  0.08120000  0.47750000  1.0
  O2-  O3  1  0.12225000  0.41453333  0.47750000  1.0
  O2-  O3  1  0.12225000  0.74786667  0.47750000  1.0
  O2-  O3  1  0.62225000  0.08120000  0.47750000  1.0
  O2-  O3  1  0.62225000  0.41453333  0.47750000  1.0
  O2-  O3  1  0.62225000  0.74786667  0.47750000  1.0
  O2-  O3  1  0.49955000  0.08120000  0.97750000  1.0
  O2-  O3  1  0.49955000  0.41453333  0.97750000  1.0
  O2-  O3  1  0.49955000  0.74786667  0.97750000  1.0
  O2-  O3  1  0.99955000  0.08120000  0.97750000  1.0
  O2-  O3  1  0.99955000  0.41453333  0.97750000  1.0
  O2-  O3  1  0.99955000  0.74786667  0.97750000  1.0
  O2-  O3  1  0.37775000  0.25213333  0.52250000  1.0
  O2-  O3  1  0.37775000  0.58546667  0.52250000  1.0
  O2-  O3  1  0.37775000  0.91880000  0.52250000  1.0
  O2-  O3  1  0.87775000  0.25213333  0.52250000  1.0
  O2-  O3  1  0.87775000  0.58546667  0.52250000  1.0
  O2-  O3  1  0.87775000  0.91880000  0.52250000  1.0
  O2-  O4  1  0.42570000  0.00000000  0.25000000  1.0
  O2-  O4  1  0.42570000  0.33333333  0.25000000  1.0
  O2-  O4  1  0.42570000  0.66666667  0.25000000  1.0
  O2-  O4  1  0.92570000  0.00000000  0.25000000  1.0
  O2-  O4  1  0.92570000  0.33333333  0.25000000  1.0
  O2-  O4  1  0.92570000  0.66666667  0.25000000  1.0
  O2-  O4  1  0.07430000  0.00000000  0.75000000  1.0
  O2-  O4  1  0.07430000  0.33333333  0.75000000  1.0
  O2-  O4  1  0.07430000  0.66666667  0.75000000  1.0
  O2-  O4  1  0.57430000  0.00000000  0.75000000  1.0
  O2-  O4  1  0.57430000  0.33333333  0.75000000  1.0
  O2-  O4  1  0.57430000  0.66666667  0.75000000  1.0
