# generated using pymatgen
data_Li6PS5Br
_symmetry_space_group_name_H-M   'P 1'
_cell_length_a   7.05298002
_cell_length_b   35.26490010
_cell_length_c   14.10596004
_cell_angle_alpha   60.00000000
_cell_angle_beta   120.00000000
_cell_angle_gamma   120.00000000
_symmetry_Int_Tables_number   1
_chemical_formula_structural   Li6PS5Br
_chemical_formula_sum   'Li60 P10 S50 Br10'
_cell_volume   2480.86403296
_cell_formula_units_Z   10
loop_
 _symmetry_equiv_pos_site_id
 _symmetry_equiv_pos_as_xyz
  1  'x, y, z'
loop_
 _atom_type_symbol
 _atom_type_oxidation_number
  Li+  1.0
  P5+  5.0
  S2-  -2.0
  Br-  -1.0
loop_
 _atom_site_type_symbol
 _atom_site_label
 _atom_site_symmetry_multiplicity
 _atom_site_fract_x
 _atom_site_fract_y
 _atom_site_fract_z
 _atom_site_occupancy
  Li+  Li0  1  0.02209245  0.49731871  0.24359927  1.0
  Li+  Li1  1  0.02100000  0.10420000  0.23950000  1.0
  Li+  Li2  1  0.02100000  0.59580000  0.01050000  1.0
  Li+  Li3  1  0.88361120  0.95385129  0.41879397  1.0
  Li+  Li4  1  0.66014914  0.15489262  0.30802630  1.0
  Li+  Li5  1  0.66309870  0.34902652  0.81212116  1.0
  Li+  Li6  1  0.88200000  0.06760000  0.63600000  1.0
  Li+  Li7  1  0.88200000  0.06760000  0.13600000  1.0
  Li+  Li8  1  0.88200000  0.15440000  0.63600000  1.0
  Li+  Li9  1  0.66200000  0.82360000  0.13600000  1.0
  Li+  Li10  1  0.66200000  0.55440000  0.63600000  1.0
  Li+  Li11  1  0.22800000  0.55440000  0.91900000  1.0
  Li+  Li12  1  0.22800000  0.35440000  0.91900000  1.0
  Li+  Li13  1  0.23249605  0.62243262  0.13370068  1.0
  Li+  Li14  1  0.35170000  0.87902000  0.73915000  1.0
  Li+  Li15  1  0.35170000  0.67902000  0.73915000  1.0
  Li+  Li16  1  0.35170000  0.07902000  0.73915000  1.0
  Li+  Li17  1  0.35170000  0.87902000  0.23915000  1.0
  Li+  Li18  1  0.02170000  0.52966000  0.44755000  1.0
  Li+  Li19  1  0.02170000  0.32966000  0.44755000  1.0
  Li+  Li20  1  0.02170000  0.92966000  0.94755000  1.0
  Li+  Li21  1  0.02092793  0.52942036  0.94830148  1.0
  Li+  Li22  1  0.02170000  0.12966000  0.94755000  1.0
  Li+  Li23  1  0.60490000  0.59566000  0.23915000  1.0
  Li+  Li24  1  0.60490000  0.72966000  0.23915000  1.0
  Li+  Li25  1  0.60490000  0.52966000  0.23915000  1.0
  Li+  Li26  1  0.60490000  0.32966000  0.23915000  1.0
  Li+  Li27  1  0.02170000  0.67902000  0.73915000  1.0
  Li+  Li28  1  0.02228250  0.27905395  0.74226885  1.0
  Li+  Li29  1  0.02170000  0.67902000  0.23915000  1.0
  Li+  Li30  1  0.02170000  0.92966000  0.73915000  1.0
  Li+  Li31  1  0.02170000  0.32966000  0.73915000  1.0
  Li+  Li32  1  0.02170000  0.92966000  0.23915000  1.0
  Li+  Li33  1  0.02170000  0.52966000  0.23915000  1.0
  Li+  Li34  1  0.02170000  0.32966000  0.23915000  1.0
  Li+  Li35  1  0.01745544  0.12762868  0.23824861  1.0
  Li+  Li36  1  0.02509521  0.27966575  0.57391158  1.0
  Li+  Li37  1  0.02068132  0.08268999  0.57534140  1.0
  Li+  Li38  1  0.02170000  0.67902000  0.07415000  1.0
  Li+  Li39  1  0.02170000  0.27902000  0.07415000  1.0
  Li+  Li40  1  0.01943003  0.07789459  0.07450696  1.0
  Li+  Li41  1  0.02170000  0.99566000  0.57415000  1.0
  Li+  Li42  1  0.02170000  0.79566000  0.57415000  1.0
  Li+  Li43  1  0.02170000  0.59566000  0.57415000  1.0
  Li+  Li44  1  0.35170000  0.79566000  0.73915000  1.0
  Li+  Li45  1  0.34804002  0.59452271  0.74003438  1.0
  Li+  Li46  1  0.01834560  0.99765123  0.44973620  1.0
  Li+  Li47  1  0.02170000  0.59566000  0.44755000  1.0
  Li+  Li48  1  0.01834831  0.19825412  0.44476099  1.0
  Li+  Li49  1  0.02170000  0.79566000  0.94755000  1.0
  Li+  Li50  1  0.02459767  0.39838821  0.94560386  1.0
  Li+  Li51  1  0.01962448  0.19233000  0.94885610  1.0
  Li+  Li52  1  0.60490000  0.99566000  0.57415000  1.0
  Li+  Li53  1  0.60490000  0.39566000  0.57415000  1.0
  Li+  Li54  1  0.60490000  0.79566000  0.07415000  1.0
  Li+  Li55  1  0.35170000  0.99566000  0.44755000  1.0
  Li+  Li56  1  0.35170000  0.79566000  0.44755000  1.0
  Li+  Li57  1  0.35170000  0.59566000  0.44755000  1.0
  Li+  Li58  1  0.35170000  0.39566000  0.94755000  1.0
  Li+  Li59  1  0.35170000  0.19566000  0.94755000  1.0
  P5+  P60  1  0.50000000  0.90000000  0.50000000  1.0
  P5+  P61  1  0.50000000  0.70000000  0.50000000  1.0
  P5+  P62  1  0.50000000  0.50000000  0.50000000  1.0
  P5+  P63  1  0.49986650  0.29664949  0.50211964  1.0
  P5+  P64  1  0.50000000  0.10000000  0.50000000  1.0
  P5+  P65  1  0.50000000  0.90000000  0.00000000  1.0
  P5+  P66  1  0.50000000  0.70000000  0.00000000  1.0
  P5+  P67  1  0.50000000  0.50000000  0.00000000  1.0
  P5+  P68  1  0.50000000  0.30000000  0.00000000  1.0
  P5+  P69  1  0.50000000  0.10000000  0.00000000  1.0
  S2-  S70  1  0.61830000  0.87634000  0.67745000  1.0
  S2-  S71  1  0.61830000  0.67634000  0.67745000  1.0
  S2-  S72  1  0.62036159  0.47758200  0.68270556  1.0
  S2-  S73  1  0.61830000  0.27634000  0.67745000  1.0
  S2-  S74  1  0.61830000  0.07634000  0.67745000  1.0
  S2-  S75  1  0.61830000  0.87634000  0.17745000  1.0
  S2-  S76  1  0.62119934  0.68153478  0.17881032  1.0
  S2-  S77  1  0.61830000  0.47634000  0.17745000  1.0
  S2-  S78  1  0.61733382  0.28020505  0.18008628  1.0
  S2-  S79  1  0.61830000  0.07634000  0.17745000  1.0
  S2-  S80  1  0.61830000  0.87634000  0.44085000  1.0
  S2-  S81  1  0.61785900  0.67438894  0.44241426  1.0
  S2-  S82  1  0.61830000  0.47634000  0.44085000  1.0
  S2-  S83  1  0.61830000  0.27634000  0.44085000  1.0
  S2-  S84  1  0.61830000  0.07634000  0.44085000  1.0
  S2-  S85  1  0.61830000  0.87634000  0.94085000  1.0
  S2-  S86  1  0.61830000  0.67634000  0.94085000  1.0
  S2-  S87  1  0.61669410  0.47775651  0.94262769  1.0
  S2-  S88  1  0.61830000  0.27634000  0.94085000  1.0
  S2-  S89  1  0.61830000  0.07634000  0.94085000  1.0
  S2-  S90  1  0.61830000  0.97098000  0.44085000  1.0
  S2-  S91  1  0.61542861  0.76880733  0.43679137  1.0
  S2-  S92  1  0.61511667  0.57842876  0.43825484  1.0
  S2-  S93  1  0.62195321  0.37024710  0.44392412  1.0
  S2-  S94  1  0.61744959  0.16989556  0.44522564  1.0
  S2-  S95  1  0.61830000  0.97098000  0.94085000  1.0
  S2-  S96  1  0.61938880  0.77208379  0.93504170  1.0
  S2-  S97  1  0.61830000  0.57098000  0.94085000  1.0
  S2-  S98  1  0.61830000  0.37098000  0.94085000  1.0
  S2-  S99  1  0.61830000  0.17098000  0.94085000  1.0
  S2-  S100  1  0.14751652  0.87264159  0.44585302  1.0
  S2-  S101  1  0.14510000  0.67634000  0.44085000  1.0
  S2-  S102  1  0.14510000  0.47634000  0.44085000  1.0
  S2-  S103  1  0.14510000  0.27634000  0.44085000  1.0
  S2-  S104  1  0.14382578  0.07518955  0.44083351  1.0
  S2-  S105  1  0.14510000  0.87634000  0.94085000  1.0
  S2-  S106  1  0.14510000  0.67634000  0.94085000  1.0
  S2-  S107  1  0.14510000  0.47634000  0.94085000  1.0
  S2-  S108  1  0.14510000  0.27634000  0.94085000  1.0
  S2-  S109  1  0.14510000  0.07634000  0.94085000  1.0
  S2-  S110  1  0.99607422  0.79914629  0.75483470  1.0
  S2-  S111  1  0.00000000  0.40000000  0.75000000  1.0
  S2-  S112  1  0.00000000  0.60000000  0.25000000  1.0
  S2-  S113  1  0.75000000  0.65000000  0.37500000  1.0
  S2-  S114  1  0.74728856  0.44936517  0.37410762  1.0
  S2-  S115  1  0.75000000  0.25000000  0.37500000  1.0
  S2-  S116  1  0.75000000  0.05000000  0.37500000  1.0
  S2-  S117  1  0.75000000  0.85000000  0.87500000  1.0
  S2-  S118  1  0.75000000  0.25000000  0.87500000  1.0
  S2-  S119  1  0.75000000  0.05000000  0.87500000  1.0
  Br-  Br120  1  0.00000000  0.00000000  0.75000000  1.0
  Br-  Br121  1  0.00000000  0.60000000  0.75000000  1.0
  Br-  Br122  1  0.00024264  0.20122394  0.75078583  1.0
  Br-  Br123  1  0.00000000  0.00000000  0.25000000  1.0
  Br-  Br124  1  0.00000000  0.80000000  0.25000000  1.0
  Br-  Br125  1  0.00000000  0.40000000  0.25000000  1.0
  Br-  Br126  1  0.00000000  0.20000000  0.25000000  1.0
  Br-  Br127  1  0.75000000  0.85000000  0.37500000  1.0
  Br-  Br128  1  0.75000000  0.65000000  0.87500000  1.0
  Br-  Br129  1  0.75000000  0.45000000  0.87500000  1.0
