# generated using pymatgen
data_Li6PS5Br
_symmetry_space_group_name_H-M   'P 1'
_cell_length_a   14.10508652
_cell_length_b   7.05254326
_cell_length_c   35.26271631
_cell_angle_alpha   120.00000000
_cell_angle_beta   120.00000000
_cell_angle_gamma   60.00000000
_symmetry_Int_Tables_number   1
_chemical_formula_structural   Li6PS5Br
_chemical_formula_sum   'Li60 P10 S50 Br10'
_cell_volume   2480.40317524
_cell_formula_units_Z   10
loop_
 _symmetry_equiv_pos_site_id
 _symmetry_equiv_pos_as_xyz
  1  'x, y, z'
loop_
 _atom_type_symbol
 _atom_type_oxidation_number
  Li+  1.0
  P5+  5.0
  S2-  -2.0
  Br-  -1.0
loop_
 _atom_site_type_symbol
 _atom_site_label
 _atom_site_symmetry_multiplicity
 _atom_site_fract_x
 _atom_site_fract_y
 _atom_site_fract_z
 _atom_site_occupancy
  Li+  Li0  1  0.48950000  0.64566667  0.49580000  1.0
  Li+  Li1  1  0.48950000  0.64566667  0.89580000  1.0
  Li+  Li2  1  0.26050000  0.64566667  0.40420000  1.0
  Li+  Li3  1  0.66900000  0.78466667  0.04560000  1.0
  Li+  Li4  1  0.55900000  0.00466667  0.84560000  1.0
  Li+  Li5  1  0.05900000  0.00466667  0.64560000  1.0
  Li+  Li6  1  0.88600000  0.78466667  0.93240000  1.0
  Li+  Li7  1  0.38600000  0.78466667  0.93240000  1.0
  Li+  Li8  1  0.88600000  0.78466667  0.84560000  1.0
  Li+  Li9  1  0.38600000  0.00466667  0.17640000  1.0
  Li+  Li10  1  0.88600000  0.00466667  0.44560000  1.0
  Li+  Li11  1  0.16900000  0.43866667  0.44560000  1.0
  Li+  Li12  1  0.16900000  0.43866667  0.64560000  1.0
  Li+  Li13  1  0.38600000  0.43866667  0.37640000  1.0
  Li+  Li14  1  0.98915000  0.31496667  0.12098000  1.0
  Li+  Li15  1  0.98915000  0.31496667  0.32098000  1.0
  Li+  Li16  1  0.98915000  0.31496667  0.92098000  1.0
  Li+  Li17  1  0.48915000  0.31496667  0.12098000  1.0
  Li+  Li18  1  0.69755000  0.64496667  0.47034000  1.0
  Li+  Li19  1  0.69755000  0.64496667  0.67034000  1.0
  Li+  Li20  1  0.19755000  0.64496667  0.07034000  1.0
  Li+  Li21  1  0.19755000  0.64496667  0.47034000  1.0
  Li+  Li22  1  0.19755000  0.64496667  0.87034000  1.0
  Li+  Li23  1  0.48915000  0.06176667  0.40434000  1.0
  Li+  Li24  1  0.48915000  0.06176667  0.27034000  1.0
  Li+  Li25  1  0.48915000  0.06176667  0.47034000  1.0
  Li+  Li26  1  0.48915000  0.06176667  0.67034000  1.0
  Li+  Li27  1  0.98915000  0.64496667  0.32098000  1.0
  Li+  Li28  1  0.98915000  0.64496667  0.72098000  1.0
  Li+  Li29  1  0.48915000  0.64496667  0.32098000  1.0
  Li+  Li30  1  0.98915000  0.64496667  0.07034000  1.0
  Li+  Li31  1  0.98915000  0.64496667  0.67034000  1.0
  Li+  Li32  1  0.48915000  0.64496667  0.07034000  1.0
  Li+  Li33  1  0.48915000  0.64496667  0.47034000  1.0
  Li+  Li34  1  0.48915000  0.64496667  0.67034000  1.0
  Li+  Li35  1  0.48915000  0.64496667  0.87034000  1.0
  Li+  Li36  1  0.82415000  0.64496667  0.72098000  1.0
  Li+  Li37  1  0.82415000  0.64496667  0.92098000  1.0
  Li+  Li38  1  0.32415000  0.64496667  0.32098000  1.0
  Li+  Li39  1  0.32415000  0.64496667  0.72098000  1.0
  Li+  Li40  1  0.32415000  0.64496667  0.92098000  1.0
  Li+  Li41  1  0.82415000  0.64496667  0.00434000  1.0
  Li+  Li42  1  0.82415000  0.64496667  0.20434000  1.0
  Li+  Li43  1  0.82415000  0.64496667  0.40434000  1.0
  Li+  Li44  1  0.98915000  0.31496667  0.20434000  1.0
  Li+  Li45  1  0.98915000  0.31496667  0.40434000  1.0
  Li+  Li46  1  0.69755000  0.64496667  0.00434000  1.0
  Li+  Li47  1  0.69755000  0.64496667  0.40434000  1.0
  Li+  Li48  1  0.69755000  0.64496667  0.80434000  1.0
  Li+  Li49  1  0.19755000  0.64496667  0.20434000  1.0
  Li+  Li50  1  0.19755000  0.64496667  0.60434000  1.0
  Li+  Li51  1  0.19755000  0.64496667  0.80434000  1.0
  Li+  Li52  1  0.82415000  0.06176667  0.00434000  1.0
  Li+  Li53  1  0.82415000  0.06176667  0.60434000  1.0
  Li+  Li54  1  0.32415000  0.06176667  0.20434000  1.0
  Li+  Li55  1  0.69755000  0.31496667  0.00434000  1.0
  Li+  Li56  1  0.69755000  0.31496667  0.20434000  1.0
  Li+  Li57  1  0.69755000  0.31496667  0.40434000  1.0
  Li+  Li58  1  0.19755000  0.31496667  0.60434000  1.0
  Li+  Li59  1  0.19755000  0.31496667  0.80434000  1.0
  P5+  P60  1  0.75000000  0.16666667  0.10000000  1.0
  P5+  P61  1  0.75000000  0.16666667  0.30000000  1.0
  P5+  P62  1  0.75000000  0.16666667  0.50000000  1.0
  P5+  P63  1  0.75000000  0.16666667  0.70000000  1.0
  P5+  P64  1  0.75000000  0.16666667  0.90000000  1.0
  P5+  P65  1  0.25000000  0.16666667  0.10000000  1.0
  P5+  P66  1  0.25000000  0.16666667  0.30000000  1.0
  P5+  P67  1  0.25000000  0.16666667  0.50000000  1.0
  P5+  P68  1  0.25000000  0.16666667  0.70000000  1.0
  P5+  P69  1  0.25000000  0.16666667  0.90000000  1.0
  S2-  S70  1  0.92745000  0.04836667  0.12366000  1.0
  S2-  S71  1  0.92745000  0.04836667  0.32366000  1.0
  S2-  S72  1  0.92745000  0.04836667  0.52366000  1.0
  S2-  S73  1  0.92745000  0.04836667  0.72366000  1.0
  S2-  S74  1  0.92745000  0.04836667  0.92366000  1.0
  S2-  S75  1  0.42745000  0.04836667  0.12366000  1.0
  S2-  S76  1  0.42745000  0.04836667  0.32366000  1.0
  S2-  S77  1  0.42745000  0.04836667  0.52366000  1.0
  S2-  S78  1  0.42745000  0.04836667  0.72366000  1.0
  S2-  S79  1  0.42745000  0.04836667  0.92366000  1.0
  S2-  S80  1  0.69085000  0.04836667  0.12366000  1.0
  S2-  S81  1  0.69085000  0.04836667  0.32366000  1.0
  S2-  S82  1  0.69085000  0.04836667  0.52366000  1.0
  S2-  S83  1  0.69085000  0.04836667  0.72366000  1.0
  S2-  S84  1  0.69085000  0.04836667  0.92366000  1.0
  S2-  S85  1  0.19085000  0.04836667  0.12366000  1.0
  S2-  S86  1  0.19085000  0.04836667  0.32366000  1.0
  S2-  S87  1  0.19085000  0.04836667  0.52366000  1.0
  S2-  S88  1  0.19085000  0.04836667  0.72366000  1.0
  S2-  S89  1  0.19085000  0.04836667  0.92366000  1.0
  S2-  S90  1  0.69085000  0.04836667  0.02902000  1.0
  S2-  S91  1  0.69085000  0.04836667  0.22902000  1.0
  S2-  S92  1  0.69085000  0.04836667  0.42902000  1.0
  S2-  S93  1  0.69085000  0.04836667  0.62902000  1.0
  S2-  S94  1  0.69085000  0.04836667  0.82902000  1.0
  S2-  S95  1  0.19085000  0.04836667  0.02902000  1.0
  S2-  S96  1  0.19085000  0.04836667  0.22902000  1.0
  S2-  S97  1  0.19085000  0.04836667  0.42902000  1.0
  S2-  S98  1  0.19085000  0.04836667  0.62902000  1.0
  S2-  S99  1  0.19085000  0.04836667  0.82902000  1.0
  S2-  S100  1  0.69085000  0.52156667  0.12366000  1.0
  S2-  S101  1  0.69085000  0.52156667  0.32366000  1.0
  S2-  S102  1  0.69085000  0.52156667  0.52366000  1.0
  S2-  S103  1  0.69085000  0.52156667  0.72366000  1.0
  S2-  S104  1  0.69085000  0.52156667  0.92366000  1.0
  S2-  S105  1  0.19085000  0.52156667  0.12366000  1.0
  S2-  S106  1  0.19085000  0.52156667  0.32366000  1.0
  S2-  S107  1  0.19085000  0.52156667  0.52366000  1.0
  S2-  S108  1  0.19085000  0.52156667  0.72366000  1.0
  S2-  S109  1  0.19085000  0.52156667  0.92366000  1.0
  S2-  S110  1  0.00000000  0.66666667  0.20000000  1.0
  S2-  S111  1  0.00000000  0.66666667  0.60000000  1.0
  S2-  S112  1  0.50000000  0.66666667  0.40000000  1.0
  S2-  S113  1  0.62500000  0.91666667  0.35000000  1.0
  S2-  S114  1  0.62500000  0.91666667  0.55000000  1.0
  S2-  S115  1  0.62500000  0.91666667  0.75000000  1.0
  S2-  S116  1  0.62500000  0.91666667  0.95000000  1.0
  S2-  S117  1  0.12500000  0.91666667  0.15000000  1.0
  S2-  S118  1  0.12500000  0.91666667  0.75000000  1.0
  S2-  S119  1  0.12500000  0.91666667  0.95000000  1.0
  Br-  Br120  1  0.00000000  0.66666667  0.00000000  1.0
  Br-  Br121  1  0.00000000  0.66666667  0.40000000  1.0
  Br-  Br122  1  0.00000000  0.66666667  0.80000000  1.0
  Br-  Br123  1  0.50000000  0.66666667  0.00000000  1.0
  Br-  Br124  1  0.50000000  0.66666667  0.20000000  1.0
  Br-  Br125  1  0.50000000  0.66666667  0.60000000  1.0
  Br-  Br126  1  0.50000000  0.66666667  0.80000000  1.0
  Br-  Br127  1  0.62500000  0.91666667  0.15000000  1.0
  Br-  Br128  1  0.12500000  0.91666667  0.35000000  1.0
  Br-  Br129  1  0.12500000  0.91666667  0.55000000  1.0
