# generated using pymatgen
data_Li2La3Ti4AlO15
_symmetry_space_group_name_H-M   'P 1'
_cell_length_a   7.72340000
_cell_length_b   7.72340000
_cell_length_c   19.30850000
_cell_angle_alpha   90.00000000
_cell_angle_beta   90.00000000
_cell_angle_gamma   90.00000000
_symmetry_Int_Tables_number   1
_chemical_formula_structural   Li2La3Ti4AlO15
_chemical_formula_sum   'Li8 La12 Ti16 Al4 O60'
_cell_volume   1151.76954862
_cell_formula_units_Z   4
loop_
 _symmetry_equiv_pos_site_id
 _symmetry_equiv_pos_as_xyz
  1  'x, y, z'
loop_
 _atom_type_symbol
 _atom_type_oxidation_number
  Li+  1.0
  La3+  3.0
  Ti4+  4.0
  Al3+  3.0
  O2-  -2.0
loop_
 _atom_site_type_symbol
 _atom_site_label
 _atom_site_symmetry_multiplicity
 _atom_site_fract_x
 _atom_site_fract_y
 _atom_site_fract_z
 _atom_site_occupancy
  Li+  Li0  1  0.25000000  0.25000000  0.70000000  1.0
  Li+  Li1  1  0.25000000  0.25000000  0.90000000  1.0
  Li+  Li2  1  0.25000000  0.75000000  0.10000000  1.0
  Li+  Li3  1  0.25000000  0.75000000  0.50000000  1.0
  Li+  Li4  1  0.75000000  0.25000000  0.10000000  1.0
  Li+  Li5  1  0.75000000  0.25000000  0.30000000  1.0
  Li+  Li6  1  0.75000000  0.25000000  0.50000000  1.0
  Li+  Li7  1  0.75000000  0.75000000  0.90000000  1.0
  La3+  La8  1  0.25000000  0.25000000  0.10000000  1.0
  La3+  La9  1  0.25000000  0.25000000  0.30000000  1.0
  La3+  La10  1  0.25000000  0.25000000  0.50000000  1.0
  La3+  La11  1  0.25000000  0.75000000  0.30000000  1.0
  La3+  La12  1  0.25000000  0.75000000  0.70000000  1.0
  La3+  La13  1  0.25000000  0.75000000  0.90000000  1.0
  La3+  La14  1  0.75000000  0.25000000  0.70000000  1.0
  La3+  La15  1  0.75000000  0.25000000  0.90000000  1.0
  La3+  La16  1  0.75000000  0.75000000  0.10000000  1.0
  La3+  La17  1  0.75000000  0.75000000  0.30000000  1.0
  La3+  La18  1  0.75000000  0.75000000  0.50000000  1.0
  La3+  La19  1  0.75000000  0.75000000  0.70000000  1.0
  Ti4+  Ti20  1  0.00000000  0.00000000  0.00000000  1.0
  Ti4+  Ti21  1  0.00000000  0.00000000  0.20000000  1.0
  Ti4+  Ti22  1  0.00000000  0.00000000  0.60000000  1.0
  Ti4+  Ti23  1  0.00000000  0.00000000  0.80000000  1.0
  Ti4+  Ti24  1  0.00000000  0.50000000  0.00000000  1.0
  Ti4+  Ti25  1  0.00000000  0.50000000  0.20000000  1.0
  Ti4+  Ti26  1  0.00000000  0.50000000  0.60000000  1.0
  Ti4+  Ti27  1  0.00000000  0.50000000  0.80000000  1.0
  Ti4+  Ti28  1  0.50000000  0.00000000  0.20000000  1.0
  Ti4+  Ti29  1  0.50000000  0.00000000  0.40000000  1.0
  Ti4+  Ti30  1  0.50000000  0.00000000  0.80000000  1.0
  Ti4+  Ti31  1  0.50000000  0.50000000  0.00000000  1.0
  Ti4+  Ti32  1  0.50000000  0.50000000  0.20000000  1.0
  Ti4+  Ti33  1  0.50000000  0.50000000  0.40000000  1.0
  Ti4+  Ti34  1  0.50000000  0.50000000  0.60000000  1.0
  Ti4+  Ti35  1  0.50000000  0.50000000  0.80000000  1.0
  Al3+  Al36  1  0.00000000  0.00000000  0.40000000  1.0
  Al3+  Al37  1  0.00000000  0.50000000  0.40000000  1.0
  Al3+  Al38  1  0.50000000  0.00000000  0.00000000  1.0
  Al3+  Al39  1  0.50000000  0.00000000  0.60000000  1.0
  O2-  O1  1  0.00000000  0.00000000  0.10000000  1.0
  O2-  O1  1  0.00000000  0.00000000  0.30000000  1.0
  O2-  O1  1  0.00000000  0.00000000  0.50000000  1.0
  O2-  O1  1  0.00000000  0.00000000  0.70000000  1.0
  O2-  O1  1  0.00000000  0.00000000  0.90000000  1.0
  O2-  O1  1  0.00000000  0.50000000  0.10000000  1.0
  O2-  O1  1  0.00000000  0.50000000  0.30000000  1.0
  O2-  O1  1  0.00000000  0.50000000  0.50000000  1.0
  O2-  O1  1  0.00000000  0.50000000  0.70000000  1.0
  O2-  O1  1  0.00000000  0.50000000  0.90000000  1.0
  O2-  O1  1  0.50000000  0.00000000  0.10000000  1.0
  O2-  O1  1  0.50000000  0.00000000  0.30000000  1.0
  O2-  O1  1  0.50000000  0.00000000  0.50000000  1.0
  O2-  O1  1  0.50000000  0.00000000  0.70000000  1.0
  O2-  O1  1  0.50000000  0.00000000  0.90000000  1.0
  O2-  O1  1  0.50000000  0.50000000  0.10000000  1.0
  O2-  O1  1  0.50000000  0.50000000  0.30000000  1.0
  O2-  O1  1  0.50000000  0.50000000  0.50000000  1.0
  O2-  O1  1  0.50000000  0.50000000  0.70000000  1.0
  O2-  O1  1  0.50000000  0.50000000  0.90000000  1.0
  O2-  O1  1  0.00000000  0.25000000  0.00000000  1.0
  O2-  O1  1  0.00000000  0.25000000  0.20000000  1.0
  O2-  O1  1  0.00000000  0.25000000  0.40000000  1.0
  O2-  O1  1  0.00000000  0.25000000  0.60000000  1.0
  O2-  O1  1  0.00000000  0.25000000  0.80000000  1.0
  O2-  O1  1  0.00000000  0.75000000  0.00000000  1.0
  O2-  O1  1  0.00000000  0.75000000  0.20000000  1.0
  O2-  O1  1  0.00000000  0.75000000  0.40000000  1.0
  O2-  O1  1  0.00000000  0.75000000  0.60000000  1.0
  O2-  O1  1  0.00000000  0.75000000  0.80000000  1.0
  O2-  O1  1  0.50000000  0.25000000  0.00000000  1.0
  O2-  O1  1  0.50000000  0.25000000  0.20000000  1.0
  O2-  O1  1  0.50000000  0.25000000  0.40000000  1.0
  O2-  O1  1  0.50000000  0.25000000  0.60000000  1.0
  O2-  O1  1  0.50000000  0.25000000  0.80000000  1.0
  O2-  O1  1  0.50000000  0.75000000  0.00000000  1.0
  O2-  O1  1  0.50000000  0.75000000  0.20000000  1.0
  O2-  O1  1  0.50000000  0.75000000  0.40000000  1.0
  O2-  O1  1  0.50000000  0.75000000  0.60000000  1.0
  O2-  O1  1  0.50000000  0.75000000  0.80000000  1.0
  O2-  O1  1  0.25000000  0.00000000  0.00000000  1.0
  O2-  O1  1  0.25000000  0.00000000  0.20000000  1.0
  O2-  O1  1  0.25000000  0.00000000  0.40000000  1.0
  O2-  O1  1  0.25000000  0.00000000  0.60000000  1.0
  O2-  O1  1  0.25000000  0.00000000  0.80000000  1.0
  O2-  O1  1  0.25000000  0.50000000  0.00000000  1.0
  O2-  O1  1  0.25000000  0.50000000  0.20000000  1.0
  O2-  O1  1  0.25000000  0.50000000  0.40000000  1.0
  O2-  O1  1  0.25000000  0.50000000  0.60000000  1.0
  O2-  O1  1  0.25000000  0.50000000  0.80000000  1.0
  O2-  O1  1  0.75000000  0.00000000  0.00000000  1.0
  O2-  O1  1  0.75000000  0.00000000  0.20000000  1.0
  O2-  O1  1  0.75000000  0.00000000  0.40000000  1.0
  O2-  O1  1  0.75000000  0.00000000  0.60000000  1.0
  O2-  O1  1  0.75000000  0.00000000  0.80000000  1.0
  O2-  O1  1  0.75000000  0.50000000  0.00000000  1.0
  O2-  O1  1  0.75000000  0.50000000  0.20000000  1.0
  O2-  O1  1  0.75000000  0.50000000  0.40000000  1.0
  O2-  O1  1  0.75000000  0.50000000  0.60000000  1.0
  O2-  O1  1  0.75000000  0.50000000  0.80000000  1.0
