# generated using pymatgen
data_Li2AlGa(GeO4)2
_symmetry_space_group_name_H-M   'P 1'
_cell_length_a   17.16033043
_cell_length_b   8.58016521
_cell_length_c   17.16033042
_cell_angle_alpha   107.81843733
_cell_angle_beta   72.18156267
_cell_angle_gamma   72.18156267
_symmetry_Int_Tables_number   1
_chemical_formula_structural   Li2AlGa(GeO4)2
_chemical_formula_sum   'Li24 Al12 Ga12 Ge24 O96'
_cell_volume   2055.43933150
_cell_formula_units_Z   12
loop_
 _symmetry_equiv_pos_site_id
 _symmetry_equiv_pos_as_xyz
  1  'x, y, z'
loop_
 _atom_type_symbol
 _atom_type_oxidation_number
  Li+  1.0
  Al3+  3.0
  Ga3+  3.0
  Ge4+  4.0
  O2-  -2.0
loop_
 _atom_site_type_symbol
 _atom_site_label
 _atom_site_symmetry_multiplicity
 _atom_site_fract_x
 _atom_site_fract_y
 _atom_site_fract_z
 _atom_site_occupancy
  Li+  Li0  1  0.23200000  0.78600000  0.44050000  1.0
  Li+  Li1  1  0.23200000  0.78600000  0.94050000  1.0
  Li+  Li2  1  0.73200000  0.78600000  0.44050000  1.0
  Li+  Li3  1  0.73200000  0.78600000  0.94050000  1.0
  Li+  Li4  1  0.30867953  0.53532552  0.64319155  1.0
  Li+  Li5  1  0.31031403  0.53613738  0.14123682  1.0
  Li+  Li6  1  0.80950000  0.53600000  0.64300000  1.0
  Li+  Li7  1  0.80950000  0.53600000  0.14300000  1.0
  Li+  Li8  1  0.10700000  0.38100000  0.51800000  1.0
  Li+  Li9  1  0.10700000  0.38100000  0.01800000  1.0
  Li+  Li10  1  0.60307615  0.38045729  0.51898311  1.0
  Li+  Li11  1  0.60700000  0.38100000  0.01800000  1.0
  Li+  Li12  1  0.36900000  0.09800000  0.67650000  1.0
  Li+  Li13  1  0.36825078  0.09697297  0.17840619  1.0
  Li+  Li14  1  0.87202339  0.09920880  0.68010256  1.0
  Li+  Li15  1  0.86900000  0.09800000  0.17650000  1.0
  Li+  Li16  1  0.07367916  0.26005751  0.30242991  1.0
  Li+  Li17  1  0.07350000  0.26200000  0.79900000  1.0
  Li+  Li18  1  0.57350000  0.26200000  0.29900000  1.0
  Li+  Li19  1  0.57350000  0.26200000  0.79900000  1.0
  Li+  Li20  1  0.45100000  0.85300000  0.38100000  1.0
  Li+  Li21  1  0.45100000  0.85300000  0.88100000  1.0
  Li+  Li22  1  0.95100000  0.85300000  0.38100000  1.0
  Li+  Li23  1  0.95100000  0.85300000  0.88100000  1.0
  Al3+  Al24  1  0.39300000  0.45300000  0.27250000  1.0
  Al3+  Al25  1  0.39300000  0.45300000  0.77250000  1.0
  Al3+  Al26  1  0.97750000  0.21400000  0.47650000  1.0
  Al3+  Al27  1  0.97750000  0.21400000  0.97650000  1.0
  Al3+  Al28  1  0.62350000  0.53200000  0.71400000  1.0
  Al3+  Al29  1  0.62325485  0.52919815  0.20964280  1.0
  Al3+  Al30  1  0.53600000  0.75300000  0.51600000  1.0
  Al3+  Al31  1  0.53749145  0.75190329  0.01808446  1.0
  Al3+  Al32  1  0.23400000  0.92800000  0.62650000  1.0
  Al3+  Al33  1  0.23400000  0.92800000  0.12650000  1.0
  Al3+  Al34  1  0.73400000  0.92800000  0.62650000  1.0
  Al3+  Al35  1  0.73400000  0.92800000  0.12650000  1.0
  Ga3+  Ga36  1  0.89300000  0.45300000  0.27250000  1.0
  Ga3+  Ga37  1  0.89300000  0.45300000  0.77250000  1.0
  Ga3+  Ga38  1  0.47750000  0.21400000  0.47650000  1.0
  Ga3+  Ga39  1  0.48024266  0.21265345  0.97591004  1.0
  Ga3+  Ga40  1  0.27350000  0.04500000  0.35700000  1.0
  Ga3+  Ga41  1  0.27350000  0.04500000  0.85700000  1.0
  Ga3+  Ga42  1  0.77350000  0.04500000  0.35700000  1.0
  Ga3+  Ga43  1  0.77123666  0.04680048  0.85646155  1.0
  Ga3+  Ga44  1  0.12388778  0.53410238  0.71427386  1.0
  Ga3+  Ga45  1  0.12350000  0.53200000  0.21400000  1.0
  Ga3+  Ga46  1  0.03600000  0.75300000  0.51600000  1.0
  Ga3+  Ga47  1  0.03743163  0.75148959  0.01815905  1.0
  Ge4+  Ge48  1  0.28900000  0.18700000  0.54900000  1.0
  Ge4+  Ge49  1  0.28900000  0.18700000  0.04900000  1.0
  Ge4+  Ge50  1  0.78393524  0.18415336  0.54443703  1.0
  Ge4+  Ge51  1  0.78900000  0.18700000  0.04900000  1.0
  Ge4+  Ge52  1  0.20100000  0.42200000  0.34350000  1.0
  Ge4+  Ge53  1  0.20099577  0.42300056  0.84332359  1.0
  Ge4+  Ge54  1  0.70100000  0.42200000  0.34350000  1.0
  Ge4+  Ge55  1  0.70457362  0.42453859  0.84137541  1.0
  Ge4+  Ge56  1  0.40650000  0.59800000  0.46100000  1.0
  Ge4+  Ge57  1  0.40650000  0.59800000  0.96100000  1.0
  Ge4+  Ge58  1  0.90650000  0.59800000  0.46100000  1.0
  Ge4+  Ge59  1  0.90806005  0.59913849  0.96093041  1.0
  Ge4+  Ge60  1  0.14847767  0.88963930  0.31208164  1.0
  Ge4+  Ge61  1  0.14650000  0.88800000  0.81000000  1.0
  Ge4+  Ge62  1  0.64650000  0.88800000  0.31000000  1.0
  Ge4+  Ge63  1  0.64650000  0.88800000  0.81000000  1.0
  Ge4+  Ge64  1  0.44000000  0.70700000  0.69400000  1.0
  Ge4+  Ge65  1  0.44000000  0.70700000  0.19400000  1.0
  Ge4+  Ge66  1  0.93858952  0.70631363  0.69514306  1.0
  Ge4+  Ge67  1  0.94000000  0.70700000  0.19400000  1.0
  Ge4+  Ge68  1  0.05600000  0.12000000  0.60350000  1.0
  Ge4+  Ge69  1  0.05651284  0.12268343  0.10294140  1.0
  Ge4+  Ge70  1  0.55630459  0.12519585  0.60097454  1.0
  Ge4+  Ge71  1  0.55600000  0.12000000  0.10350000  1.0
  O2-  O72  1  0.47300000  0.35400000  0.41550000  1.0
  O2-  O73  1  0.47475404  0.35285432  0.91322999  1.0
  O2-  O74  1  0.97300000  0.35400000  0.41550000  1.0
  O2-  O75  1  0.97300000  0.35400000  0.91550000  1.0
  O2-  O76  1  0.33695160  0.05249031  0.42816531  1.0
  O2-  O77  1  0.33450000  0.05400000  0.92700000  1.0
  O2-  O78  1  0.83450000  0.05400000  0.42700000  1.0
  O2-  O79  1  0.83450000  0.05400000  0.92700000  1.0
  O2-  O80  1  0.32300000  0.33100000  0.27700000  1.0
  O2-  O81  1  0.32300000  0.33100000  0.77700000  1.0
  O2-  O82  1  0.82300000  0.33100000  0.27700000  1.0
  O2-  O83  1  0.82098928  0.33292443  0.77507765  1.0
  O2-  O84  1  0.01700000  0.62200000  0.57750000  1.0
  O2-  O85  1  0.01700000  0.62200000  0.07750000  1.0
  O2-  O86  1  0.52257626  0.62390280  0.57671475  1.0
  O2-  O87  1  0.51700000  0.62200000  0.07750000  1.0
  O2-  O88  1  0.17342107  0.96730776  0.55880380  1.0
  O2-  O89  1  0.17250000  0.96600000  0.06100000  1.0
  O2-  O90  1  0.67250000  0.96600000  0.56100000  1.0
  O2-  O91  1  0.67250000  0.96600000  0.06100000  1.0
  O2-  O92  1  0.19122310  0.65455156  0.73326783  1.0
  O2-  O93  1  0.18900000  0.65500000  0.23300000  1.0
  O2-  O94  1  0.68900000  0.65500000  0.73300000  1.0
  O2-  O95  1  0.68900000  0.65500000  0.23300000  1.0
  O2-  O96  1  0.20800000  0.89900000  0.37500000  1.0
  O2-  O97  1  0.20800000  0.89900000  0.87500000  1.0
  O2-  O98  1  0.70800000  0.89900000  0.37500000  1.0
  O2-  O99  1  0.70800000  0.89900000  0.87500000  1.0
  O2-  O100  1  0.37934641  0.58573533  0.70017065  1.0
  O2-  O101  1  0.37500000  0.58400000  0.19950000  1.0
  O2-  O102  1  0.87500000  0.58400000  0.69950000  1.0
  O2-  O103  1  0.87500000  0.58400000  0.19950000  1.0
  O2-  O104  1  0.05050000  0.25000000  0.54200000  1.0
  O2-  O105  1  0.05050000  0.25000000  0.04200000  1.0
  O2-  O106  1  0.55242454  0.25284150  0.54205956  1.0
  O2-  O107  1  0.55050000  0.25000000  0.04200000  1.0
  O2-  O108  1  0.29589364  0.08109811  0.60766714  1.0
  O2-  O109  1  0.30150000  0.08300000  0.10750000  1.0
  O2-  O110  1  0.80237845  0.08692070  0.60718097  1.0
  O2-  O111  1  0.80150000  0.08300000  0.10750000  1.0
  O2-  O112  1  0.14408150  0.39950810  0.28925625  1.0
  O2-  O113  1  0.14250000  0.39700000  0.79150000  1.0
  O2-  O114  1  0.64250000  0.39700000  0.29150000  1.0
  O2-  O115  1  0.64250000  0.39700000  0.79150000  1.0
  O2-  O116  1  0.45850000  0.71500000  0.44850000  1.0
  O2-  O117  1  0.45850000  0.71500000  0.94850000  1.0
  O2-  O118  1  0.95850000  0.71500000  0.44850000  1.0
  O2-  O119  1  0.95850000  0.71500000  0.94850000  1.0
  O2-  O120  1  0.01250000  0.69600000  0.25100000  1.0
  O2-  O121  1  0.00919140  0.69449773  0.75618162  1.0
  O2-  O122  1  0.51250000  0.69600000  0.25100000  1.0
  O2-  O123  1  0.51250000  0.69600000  0.75100000  1.0
  O2-  O124  1  0.49900000  0.97500000  0.59800000  1.0
  O2-  O125  1  0.49900000  0.97500000  0.09800000  1.0
  O2-  O126  1  0.99900000  0.97500000  0.59800000  1.0
  O2-  O127  1  0.99900000  0.97500000  0.09800000  1.0
  O2-  O128  1  0.15200000  0.00200000  0.73750000  1.0
  O2-  O129  1  0.15200000  0.00200000  0.23750000  1.0
  O2-  O130  1  0.65200000  0.00200000  0.73750000  1.0
  O2-  O131  1  0.65200000  0.00200000  0.23750000  1.0
  O2-  O132  1  0.00332051  0.28008758  0.71936531  1.0
  O2-  O133  1  0.00750000  0.28200000  0.21700000  1.0
  O2-  O134  1  0.50750000  0.28200000  0.71700000  1.0
  O2-  O135  1  0.50750000  0.28200000  0.21700000  1.0
  O2-  O136  1  0.03300000  0.98500000  0.39100000  1.0
  O2-  O137  1  0.03300000  0.98500000  0.89100000  1.0
  O2-  O138  1  0.52922619  0.98429623  0.38581385  1.0
  O2-  O139  1  0.53300000  0.98500000  0.89100000  1.0
  O2-  O140  1  0.35900000  0.93400000  0.74250000  1.0
  O2-  O141  1  0.35900000  0.93400000  0.24250000  1.0
  O2-  O142  1  0.85900000  0.93400000  0.74250000  1.0
  O2-  O143  1  0.85900000  0.93400000  0.24250000  1.0
  O2-  O144  1  0.16050000  0.63000000  0.44550000  1.0
  O2-  O145  1  0.16050000  0.63000000  0.94550000  1.0
  O2-  O146  1  0.66050000  0.63000000  0.44550000  1.0
  O2-  O147  1  0.66050000  0.63000000  0.94550000  1.0
  O2-  O148  1  0.30450000  0.67900000  0.56500000  1.0
  O2-  O149  1  0.30450000  0.67900000  0.06500000  1.0
  O2-  O150  1  0.80450000  0.67900000  0.56500000  1.0
  O2-  O151  1  0.80450000  0.67900000  0.06500000  1.0
  O2-  O152  1  0.18265310  0.39378290  0.59115123  1.0
  O2-  O153  1  0.18500000  0.39100000  0.08950000  1.0
  O2-  O154  1  0.68500000  0.39100000  0.58950000  1.0
  O2-  O155  1  0.68500000  0.39100000  0.08950000  1.0
  O2-  O156  1  0.36350000  0.29000000  0.55850000  1.0
  O2-  O157  1  0.36465464  0.28980066  0.06128829  1.0
  O2-  O158  1  0.86340628  0.28707652  0.56035550  1.0
  O2-  O159  1  0.86283508  0.29207221  0.05599695  1.0
  O2-  O160  1  0.19359066  0.27372726  0.39489633  1.0
  O2-  O161  1  0.18761946  0.27154931  0.89918051  1.0
  O2-  O162  1  0.69150000  0.27300000  0.39500000  1.0
  O2-  O163  1  0.69150000  0.27300000  0.89500000  1.0
  O2-  O164  1  0.35620327  0.61655377  0.38582120  1.0
  O2-  O165  1  0.35467628  0.61496414  0.89191776  1.0
  O2-  O166  1  0.85500000  0.61700000  0.38650000  1.0
  O2-  O167  1  0.85500000  0.61700000  0.88650000  1.0
