# generated using pymatgen
data_Li2AlGa(GeO4)2
_symmetry_space_group_name_H-M   'P 1'
_cell_length_a   17.03807075
_cell_length_b   17.03807076
_cell_length_c   8.51903537
_cell_angle_alpha   72.18156267
_cell_angle_beta   72.18156267
_cell_angle_gamma   107.81843733
_symmetry_Int_Tables_number   1
_chemical_formula_structural   Li2AlGa(GeO4)2
_chemical_formula_sum   'Li24 Al12 Ga12 Ge24 O96'
_cell_volume   2011.81933015
_cell_formula_units_Z   12
loop_
 _symmetry_equiv_pos_site_id
 _symmetry_equiv_pos_as_xyz
  1  'x, y, z'
loop_
 _atom_type_symbol
 _atom_type_oxidation_number
  Li+  1.0
  Al3+  3.0
  Ga3+  3.0
  Ge4+  4.0
  O2-  -2.0
loop_
 _atom_site_type_symbol
 _atom_site_label
 _atom_site_symmetry_multiplicity
 _atom_site_fract_x
 _atom_site_fract_y
 _atom_site_fract_z
 _atom_site_occupancy
  Li+  Li0  1  0.69050000  0.43466667  0.21400000  1.0
  Li+  Li1  1  0.19050000  0.43466667  0.21400000  1.0
  Li+  Li2  1  0.69050000  0.93466667  0.21400000  1.0
  Li+  Li3  1  0.19050000  0.93466667  0.21400000  1.0
  Li+  Li4  1  0.89300000  0.35716667  0.46400000  1.0
  Li+  Li5  1  0.39300000  0.35716667  0.46400000  1.0
  Li+  Li6  1  0.89300000  0.85716667  0.46400000  1.0
  Li+  Li7  1  0.39300000  0.85716667  0.46400000  1.0
  Li+  Li8  1  0.76800000  0.55966667  0.61900000  1.0
  Li+  Li9  1  0.26800000  0.55966667  0.61900000  1.0
  Li+  Li10  1  0.76800000  0.05966667  0.61900000  1.0
  Li+  Li11  1  0.26800000  0.05966667  0.61900000  1.0
  Li+  Li12  1  0.92650000  0.29766667  0.90200000  1.0
  Li+  Li13  1  0.42650000  0.29766667  0.90200000  1.0
  Li+  Li14  1  0.92650000  0.79766667  0.90200000  1.0
  Li+  Li15  1  0.42650000  0.79766667  0.90200000  1.0
  Li+  Li16  1  0.54900000  0.59316667  0.73800000  1.0
  Li+  Li17  1  0.04900000  0.59316667  0.73800000  1.0
  Li+  Li18  1  0.54900000  0.09316667  0.73800000  1.0
  Li+  Li19  1  0.04900000  0.09316667  0.73800000  1.0
  Li+  Li20  1  0.63100000  0.21566667  0.14700000  1.0
  Li+  Li21  1  0.13100000  0.21566667  0.14700000  1.0
  Li+  Li22  1  0.63100000  0.71566667  0.14700000  1.0
  Li+  Li23  1  0.13100000  0.71566667  0.14700000  1.0
  Al3+  Al24  1  0.52250000  0.27366667  0.54700000  1.0
  Al3+  Al25  1  0.02250000  0.27366667  0.54700000  1.0
  Al3+  Al26  1  0.72650000  0.68916667  0.78600000  1.0
  Al3+  Al27  1  0.22650000  0.68916667  0.78600000  1.0
  Al3+  Al28  1  0.96400000  0.04316667  0.46800000  1.0
  Al3+  Al29  1  0.46400000  0.04316667  0.46800000  1.0
  Al3+  Al30  1  0.76600000  0.13066667  0.24700000  1.0
  Al3+  Al31  1  0.26600000  0.13066667  0.24700000  1.0
  Al3+  Al32  1  0.87650000  0.43266667  0.07200000  1.0
  Al3+  Al33  1  0.37650000  0.43266667  0.07200000  1.0
  Al3+  Al34  1  0.87650000  0.93266667  0.07200000  1.0
  Al3+  Al35  1  0.37650000  0.93266667  0.07200000  1.0
  Ga3+  Ga36  1  0.52250000  0.77366667  0.54700000  1.0
  Ga3+  Ga37  1  0.02250000  0.77366667  0.54700000  1.0
  Ga3+  Ga38  1  0.72650000  0.18916667  0.78600000  1.0
  Ga3+  Ga39  1  0.22650000  0.18916667  0.78600000  1.0
  Ga3+  Ga40  1  0.60700000  0.39316667  0.95500000  1.0
  Ga3+  Ga41  1  0.10700000  0.39316667  0.95500000  1.0
  Ga3+  Ga42  1  0.60700000  0.89316667  0.95500000  1.0
  Ga3+  Ga43  1  0.10700000  0.89316667  0.95500000  1.0
  Ga3+  Ga44  1  0.96400000  0.54316667  0.46800000  1.0
  Ga3+  Ga45  1  0.46400000  0.54316667  0.46800000  1.0
  Ga3+  Ga46  1  0.76600000  0.63066667  0.24700000  1.0
  Ga3+  Ga47  1  0.26600000  0.63066667  0.24700000  1.0
  Ge4+  Ge48  1  0.79900000  0.37766667  0.81300000  1.0
  Ge4+  Ge49  1  0.29900000  0.37766667  0.81300000  1.0
  Ge4+  Ge50  1  0.79900000  0.87766667  0.81300000  1.0
  Ge4+  Ge51  1  0.29900000  0.87766667  0.81300000  1.0
  Ge4+  Ge52  1  0.59350000  0.46566667  0.57800000  1.0
  Ge4+  Ge53  1  0.09350000  0.46566667  0.57800000  1.0
  Ge4+  Ge54  1  0.59350000  0.96566667  0.57800000  1.0
  Ge4+  Ge55  1  0.09350000  0.96566667  0.57800000  1.0
  Ge4+  Ge56  1  0.71100000  0.26016667  0.40200000  1.0
  Ge4+  Ge57  1  0.21100000  0.26016667  0.40200000  1.0
  Ge4+  Ge58  1  0.71100000  0.76016667  0.40200000  1.0
  Ge4+  Ge59  1  0.21100000  0.76016667  0.40200000  1.0
  Ge4+  Ge60  1  0.56000000  0.52016667  0.11200000  1.0
  Ge4+  Ge61  1  0.06000000  0.52016667  0.11200000  1.0
  Ge4+  Ge62  1  0.56000000  0.02016667  0.11200000  1.0
  Ge4+  Ge63  1  0.06000000  0.02016667  0.11200000  1.0
  Ge4+  Ge64  1  0.94400000  0.22666667  0.29300000  1.0
  Ge4+  Ge65  1  0.44400000  0.22666667  0.29300000  1.0
  Ge4+  Ge66  1  0.94400000  0.72666667  0.29300000  1.0
  Ge4+  Ge67  1  0.44400000  0.72666667  0.29300000  1.0
  Ge4+  Ge68  1  0.85350000  0.61066667  0.88000000  1.0
  Ge4+  Ge69  1  0.35350000  0.61066667  0.88000000  1.0
  Ge4+  Ge70  1  0.85350000  0.11066667  0.88000000  1.0
  Ge4+  Ge71  1  0.35350000  0.11066667  0.88000000  1.0
  O2-  O72  1  0.66550000  0.19366667  0.64600000  1.0
  O2-  O73  1  0.16550000  0.19366667  0.64600000  1.0
  O2-  O74  1  0.66550000  0.69366667  0.64600000  1.0
  O2-  O75  1  0.16550000  0.69366667  0.64600000  1.0
  O2-  O76  1  0.67700000  0.33216667  0.94600000  1.0
  O2-  O77  1  0.17700000  0.33216667  0.94600000  1.0
  O2-  O78  1  0.67700000  0.83216667  0.94600000  1.0
  O2-  O79  1  0.17700000  0.83216667  0.94600000  1.0
  O2-  O80  1  0.52700000  0.34366667  0.66900000  1.0
  O2-  O81  1  0.02700000  0.34366667  0.66900000  1.0
  O2-  O82  1  0.52700000  0.84366667  0.66900000  1.0
  O2-  O83  1  0.02700000  0.84366667  0.66900000  1.0
  O2-  O84  1  0.82750000  0.64966667  0.37800000  1.0
  O2-  O85  1  0.32750000  0.64966667  0.37800000  1.0
  O2-  O86  1  0.82750000  0.14966667  0.37800000  1.0
  O2-  O87  1  0.32750000  0.14966667  0.37800000  1.0
  O2-  O88  1  0.81100000  0.49416667  0.03400000  1.0
  O2-  O89  1  0.31100000  0.49416667  0.03400000  1.0
  O2-  O90  1  0.81100000  0.99416667  0.03400000  1.0
  O2-  O91  1  0.31100000  0.99416667  0.03400000  1.0
  O2-  O92  1  0.98300000  0.47766667  0.34500000  1.0
  O2-  O93  1  0.48300000  0.47766667  0.34500000  1.0
  O2-  O94  1  0.98300000  0.97766667  0.34500000  1.0
  O2-  O95  1  0.48300000  0.97766667  0.34500000  1.0
  O2-  O96  1  0.62500000  0.45866667  0.10100000  1.0
  O2-  O97  1  0.12500000  0.45866667  0.10100000  1.0
  O2-  O98  1  0.62500000  0.95866667  0.10100000  1.0
  O2-  O99  1  0.12500000  0.95866667  0.10100000  1.0
  O2-  O100  1  0.94950000  0.29166667  0.41600000  1.0
  O2-  O101  1  0.44950000  0.29166667  0.41600000  1.0
  O2-  O102  1  0.94950000  0.79166667  0.41600000  1.0
  O2-  O103  1  0.44950000  0.79166667  0.41600000  1.0
  O2-  O104  1  0.79200000  0.61616667  0.75000000  1.0
  O2-  O105  1  0.29200000  0.61616667  0.75000000  1.0
  O2-  O106  1  0.79200000  0.11616667  0.75000000  1.0
  O2-  O107  1  0.29200000  0.11616667  0.75000000  1.0
  O2-  O108  1  0.85750000  0.36516667  0.91700000  1.0
  O2-  O109  1  0.35750000  0.36516667  0.91700000  1.0
  O2-  O110  1  0.85750000  0.86516667  0.91700000  1.0
  O2-  O111  1  0.35750000  0.86516667  0.91700000  1.0
  O2-  O112  1  0.54150000  0.52416667  0.60300000  1.0
  O2-  O113  1  0.04150000  0.52416667  0.60300000  1.0
  O2-  O114  1  0.54150000  0.02416667  0.60300000  1.0
  O2-  O115  1  0.04150000  0.02416667  0.60300000  1.0
  O2-  O116  1  0.69850000  0.20816667  0.28500000  1.0
  O2-  O117  1  0.19850000  0.20816667  0.28500000  1.0
  O2-  O118  1  0.69850000  0.70816667  0.28500000  1.0
  O2-  O119  1  0.19850000  0.70816667  0.28500000  1.0
  O2-  O120  1  0.50100000  0.65416667  0.30400000  1.0
  O2-  O121  1  0.00100000  0.65416667  0.30400000  1.0
  O2-  O122  1  0.50100000  0.15416667  0.30400000  1.0
  O2-  O123  1  0.00100000  0.15416667  0.30400000  1.0
  O2-  O124  1  0.84800000  0.16766667  0.02500000  1.0
  O2-  O125  1  0.34800000  0.16766667  0.02500000  1.0
  O2-  O126  1  0.84800000  0.66766667  0.02500000  1.0
  O2-  O127  1  0.34800000  0.66766667  0.02500000  1.0
  O2-  O128  1  0.98750000  0.51466667  0.99800000  1.0
  O2-  O129  1  0.48750000  0.51466667  0.99800000  1.0
  O2-  O130  1  0.98750000  0.01466667  0.99800000  1.0
  O2-  O131  1  0.48750000  0.01466667  0.99800000  1.0
  O2-  O132  1  0.96700000  0.65916667  0.71800000  1.0
  O2-  O133  1  0.46700000  0.65916667  0.71800000  1.0
  O2-  O134  1  0.96700000  0.15916667  0.71800000  1.0
  O2-  O135  1  0.46700000  0.15916667  0.71800000  1.0
  O2-  O136  1  0.64100000  0.63366667  0.01500000  1.0
  O2-  O137  1  0.14100000  0.63366667  0.01500000  1.0
  O2-  O138  1  0.64100000  0.13366667  0.01500000  1.0
  O2-  O139  1  0.14100000  0.13366667  0.01500000  1.0
  O2-  O140  1  0.99250000  0.30766667  0.06600000  1.0
  O2-  O141  1  0.49250000  0.30766667  0.06600000  1.0
  O2-  O142  1  0.99250000  0.80766667  0.06600000  1.0
  O2-  O143  1  0.49250000  0.80766667  0.06600000  1.0
  O2-  O144  1  0.69550000  0.50616667  0.37000000  1.0
  O2-  O145  1  0.19550000  0.50616667  0.37000000  1.0
  O2-  O146  1  0.69550000  0.00616667  0.37000000  1.0
  O2-  O147  1  0.19550000  0.00616667  0.37000000  1.0
  O2-  O148  1  0.81500000  0.36216667  0.32100000  1.0
  O2-  O149  1  0.31500000  0.36216667  0.32100000  1.0
  O2-  O150  1  0.81500000  0.86216667  0.32100000  1.0
  O2-  O151  1  0.31500000  0.86216667  0.32100000  1.0
  O2-  O152  1  0.83950000  0.48166667  0.60900000  1.0
  O2-  O153  1  0.33950000  0.48166667  0.60900000  1.0
  O2-  O154  1  0.83950000  0.98166667  0.60900000  1.0
  O2-  O155  1  0.33950000  0.98166667  0.60900000  1.0
  O2-  O156  1  0.80850000  0.30316667  0.71000000  1.0
  O2-  O157  1  0.30850000  0.30316667  0.71000000  1.0
  O2-  O158  1  0.80850000  0.80316667  0.71000000  1.0
  O2-  O159  1  0.30850000  0.80316667  0.71000000  1.0
  O2-  O160  1  0.64500000  0.47516667  0.72700000  1.0
  O2-  O161  1  0.14500000  0.47516667  0.72700000  1.0
  O2-  O162  1  0.64500000  0.97516667  0.72700000  1.0
  O2-  O163  1  0.14500000  0.97516667  0.72700000  1.0
  O2-  O164  1  0.63650000  0.31166667  0.38300000  1.0
  O2-  O165  1  0.13650000  0.31166667  0.38300000  1.0
  O2-  O166  1  0.63650000  0.81166667  0.38300000  1.0
  O2-  O167  1  0.13650000  0.81166667  0.38300000  1.0
