# generated using pymatgen
data_Li2AlGa(GeO4)2
_symmetry_space_group_name_H-M   'P 1'
_cell_length_a   17.16033043
_cell_length_b   17.16033042
_cell_length_c   8.58016521
_cell_angle_alpha   107.81843733
_cell_angle_beta   107.81843733
_cell_angle_gamma   107.81843733
_symmetry_Int_Tables_number   1
_chemical_formula_structural   Li2AlGa(GeO4)2
_chemical_formula_sum   'Li24 Al12 Ga12 Ge24 O96'
_cell_volume   2055.43933150
_cell_formula_units_Z   12
loop_
 _symmetry_equiv_pos_site_id
 _symmetry_equiv_pos_as_xyz
  1  'x, y, z'
loop_
 _atom_type_symbol
 _atom_type_oxidation_number
  Li+  1.0
  Al3+  3.0
  Ga3+  3.0
  Ge4+  4.0
  O2-  -2.0
loop_
 _atom_site_type_symbol
 _atom_site_label
 _atom_site_symmetry_multiplicity
 _atom_site_fract_x
 _atom_site_fract_y
 _atom_site_fract_z
 _atom_site_occupancy
  Li+  Li1  1  0.23200000  0.30950000  0.21400000  1.0
  Li+  Li1  1  0.23200000  0.80950000  0.21400000  1.0
  Li+  Li1  1  0.73200000  0.30950000  0.21400000  1.0
  Li+  Li1  1  0.73200000  0.80950000  0.21400000  1.0
  Li+  Li1  1  0.30950000  0.10700000  0.46400000  1.0
  Li+  Li1  1  0.30950000  0.60700000  0.46400000  1.0
  Li+  Li1  1  0.80950000  0.10700000  0.46400000  1.0
  Li+  Li1  1  0.80950000  0.60700000  0.46400000  1.0
  Li+  Li1  1  0.10700000  0.23200000  0.61900000  1.0
  Li+  Li1  1  0.10700000  0.73200000  0.61900000  1.0
  Li+  Li1  1  0.60700000  0.23200000  0.61900000  1.0
  Li+  Li1  1  0.60700000  0.73200000  0.61900000  1.0
  Li+  Li2  1  0.36900000  0.07350000  0.90200000  1.0
  Li+  Li2  1  0.36900000  0.57350000  0.90200000  1.0
  Li+  Li2  1  0.86900000  0.07350000  0.90200000  1.0
  Li+  Li2  1  0.86900000  0.57350000  0.90200000  1.0
  Li+  Li2  1  0.07350000  0.45100000  0.73800000  1.0
  Li+  Li2  1  0.07350000  0.95100000  0.73800000  1.0
  Li+  Li2  1  0.57350000  0.45100000  0.73800000  1.0
  Li+  Li2  1  0.57350000  0.95100000  0.73800000  1.0
  Li+  Li2  1  0.45100000  0.36900000  0.14700000  1.0
  Li+  Li2  1  0.45100000  0.86900000  0.14700000  1.0
  Li+  Li2  1  0.95100000  0.36900000  0.14700000  1.0
  Li+  Li2  1  0.95100000  0.86900000  0.14700000  1.0
  Al3+  Al12  1  0.39300000  0.47750000  0.54700000  1.0
  Al3+  Al12  1  0.39300000  0.97750000  0.54700000  1.0
  Al3+  Al13  1  0.97750000  0.27350000  0.78600000  1.0
  Al3+  Al13  1  0.97750000  0.77350000  0.78600000  1.0
  Al3+  Al14  1  0.62350000  0.03600000  0.46800000  1.0
  Al3+  Al14  1  0.62350000  0.53600000  0.46800000  1.0
  Al3+  Al15  1  0.53600000  0.23400000  0.24700000  1.0
  Al3+  Al15  1  0.53600000  0.73400000  0.24700000  1.0
  Al3+  Al16  1  0.23400000  0.12350000  0.07200000  1.0
  Al3+  Al16  1  0.23400000  0.62350000  0.07200000  1.0
  Al3+  Al17  1  0.73400000  0.12350000  0.07200000  1.0
  Al3+  Al17  1  0.73400000  0.62350000  0.07200000  1.0
  Ga3+  Ga18  1  0.89300000  0.47750000  0.54700000  1.0
  Ga3+  Ga18  1  0.89300000  0.97750000  0.54700000  1.0
  Ga3+  Ga19  1  0.47750000  0.27350000  0.78600000  1.0
  Ga3+  Ga19  1  0.47750000  0.77350000  0.78600000  1.0
  Ga3+  Ga20  1  0.27350000  0.39300000  0.95500000  1.0
  Ga3+  Ga20  1  0.27350000  0.89300000  0.95500000  1.0
  Ga3+  Ga21  1  0.77350000  0.39300000  0.95500000  1.0
  Ga3+  Ga21  1  0.77350000  0.89300000  0.95500000  1.0
  Ga3+  Ga22  1  0.12350000  0.03600000  0.46800000  1.0
  Ga3+  Ga22  1  0.12350000  0.53600000  0.46800000  1.0
  Ga3+  Ga23  1  0.03600000  0.23400000  0.24700000  1.0
  Ga3+  Ga23  1  0.03600000  0.73400000  0.24700000  1.0
  Ge4+  Ge1  1  0.28900000  0.20100000  0.81300000  1.0
  Ge4+  Ge1  1  0.28900000  0.70100000  0.81300000  1.0
  Ge4+  Ge1  1  0.78900000  0.20100000  0.81300000  1.0
  Ge4+  Ge1  1  0.78900000  0.70100000  0.81300000  1.0
  Ge4+  Ge1  1  0.20100000  0.40650000  0.57800000  1.0
  Ge4+  Ge1  1  0.20100000  0.90650000  0.57800000  1.0
  Ge4+  Ge1  1  0.70100000  0.40650000  0.57800000  1.0
  Ge4+  Ge1  1  0.70100000  0.90650000  0.57800000  1.0
  Ge4+  Ge1  1  0.40650000  0.28900000  0.40200000  1.0
  Ge4+  Ge1  1  0.40650000  0.78900000  0.40200000  1.0
  Ge4+  Ge1  1  0.90650000  0.28900000  0.40200000  1.0
  Ge4+  Ge1  1  0.90650000  0.78900000  0.40200000  1.0
  Ge4+  Ge2  1  0.14650000  0.44000000  0.11200000  1.0
  Ge4+  Ge2  1  0.14650000  0.94000000  0.11200000  1.0
  Ge4+  Ge2  1  0.64650000  0.44000000  0.11200000  1.0
  Ge4+  Ge2  1  0.64650000  0.94000000  0.11200000  1.0
  Ge4+  Ge2  1  0.44000000  0.05600000  0.29300000  1.0
  Ge4+  Ge2  1  0.44000000  0.55600000  0.29300000  1.0
  Ge4+  Ge2  1  0.94000000  0.05600000  0.29300000  1.0
  Ge4+  Ge2  1  0.94000000  0.55600000  0.29300000  1.0
  Ge4+  Ge2  1  0.05600000  0.14650000  0.88000000  1.0
  Ge4+  Ge2  1  0.05600000  0.64650000  0.88000000  1.0
  Ge4+  Ge2  1  0.55600000  0.14650000  0.88000000  1.0
  Ge4+  Ge2  1  0.55600000  0.64650000  0.88000000  1.0
  O2-  O1  1  0.47300000  0.33450000  0.64600000  1.0
  O2-  O1  1  0.47300000  0.83450000  0.64600000  1.0
  O2-  O1  1  0.97300000  0.33450000  0.64600000  1.0
  O2-  O1  1  0.97300000  0.83450000  0.64600000  1.0
  O2-  O1  1  0.33450000  0.32300000  0.94600000  1.0
  O2-  O1  1  0.33450000  0.82300000  0.94600000  1.0
  O2-  O1  1  0.83450000  0.32300000  0.94600000  1.0
  O2-  O1  1  0.83450000  0.82300000  0.94600000  1.0
  O2-  O1  1  0.32300000  0.47300000  0.66900000  1.0
  O2-  O1  1  0.32300000  0.97300000  0.66900000  1.0
  O2-  O1  1  0.82300000  0.47300000  0.66900000  1.0
  O2-  O1  1  0.82300000  0.97300000  0.66900000  1.0
  O2-  O2  1  0.01700000  0.17250000  0.37800000  1.0
  O2-  O2  1  0.01700000  0.67250000  0.37800000  1.0
  O2-  O2  1  0.51700000  0.17250000  0.37800000  1.0
  O2-  O2  1  0.51700000  0.67250000  0.37800000  1.0
  O2-  O2  1  0.17250000  0.18900000  0.03400000  1.0
  O2-  O2  1  0.17250000  0.68900000  0.03400000  1.0
  O2-  O2  1  0.67250000  0.18900000  0.03400000  1.0
  O2-  O2  1  0.67250000  0.68900000  0.03400000  1.0
  O2-  O2  1  0.18900000  0.01700000  0.34500000  1.0
  O2-  O2  1  0.18900000  0.51700000  0.34500000  1.0
  O2-  O2  1  0.68900000  0.01700000  0.34500000  1.0
  O2-  O2  1  0.68900000  0.51700000  0.34500000  1.0
  O2-  O3  1  0.20800000  0.37500000  0.10100000  1.0
  O2-  O3  1  0.20800000  0.87500000  0.10100000  1.0
  O2-  O3  1  0.70800000  0.37500000  0.10100000  1.0
  O2-  O3  1  0.70800000  0.87500000  0.10100000  1.0
  O2-  O3  1  0.37500000  0.05050000  0.41600000  1.0
  O2-  O3  1  0.37500000  0.55050000  0.41600000  1.0
  O2-  O3  1  0.87500000  0.05050000  0.41600000  1.0
  O2-  O3  1  0.87500000  0.55050000  0.41600000  1.0
  O2-  O3  1  0.05050000  0.20800000  0.75000000  1.0
  O2-  O3  1  0.05050000  0.70800000  0.75000000  1.0
  O2-  O3  1  0.55050000  0.20800000  0.75000000  1.0
  O2-  O3  1  0.55050000  0.70800000  0.75000000  1.0
  O2-  O4  1  0.30150000  0.14250000  0.91700000  1.0
  O2-  O4  1  0.30150000  0.64250000  0.91700000  1.0
  O2-  O4  1  0.80150000  0.14250000  0.91700000  1.0
  O2-  O4  1  0.80150000  0.64250000  0.91700000  1.0
  O2-  O4  1  0.14250000  0.45850000  0.60300000  1.0
  O2-  O4  1  0.14250000  0.95850000  0.60300000  1.0
  O2-  O4  1  0.64250000  0.45850000  0.60300000  1.0
  O2-  O4  1  0.64250000  0.95850000  0.60300000  1.0
  O2-  O4  1  0.45850000  0.30150000  0.28500000  1.0
  O2-  O4  1  0.45850000  0.80150000  0.28500000  1.0
  O2-  O4  1  0.95850000  0.30150000  0.28500000  1.0
  O2-  O4  1  0.95850000  0.80150000  0.28500000  1.0
  O2-  O5  1  0.01250000  0.49900000  0.30400000  1.0
  O2-  O5  1  0.01250000  0.99900000  0.30400000  1.0
  O2-  O5  1  0.51250000  0.49900000  0.30400000  1.0
  O2-  O5  1  0.51250000  0.99900000  0.30400000  1.0
  O2-  O5  1  0.49900000  0.15200000  0.02500000  1.0
  O2-  O5  1  0.49900000  0.65200000  0.02500000  1.0
  O2-  O5  1  0.99900000  0.15200000  0.02500000  1.0
  O2-  O5  1  0.99900000  0.65200000  0.02500000  1.0
  O2-  O5  1  0.15200000  0.01250000  0.99800000  1.0
  O2-  O5  1  0.15200000  0.51250000  0.99800000  1.0
  O2-  O5  1  0.65200000  0.01250000  0.99800000  1.0
  O2-  O5  1  0.65200000  0.51250000  0.99800000  1.0
  O2-  O6  1  0.00750000  0.03300000  0.71800000  1.0
  O2-  O6  1  0.00750000  0.53300000  0.71800000  1.0
  O2-  O6  1  0.50750000  0.03300000  0.71800000  1.0
  O2-  O6  1  0.50750000  0.53300000  0.71800000  1.0
  O2-  O6  1  0.03300000  0.35900000  0.01500000  1.0
  O2-  O6  1  0.03300000  0.85900000  0.01500000  1.0
  O2-  O6  1  0.53300000  0.35900000  0.01500000  1.0
  O2-  O6  1  0.53300000  0.85900000  0.01500000  1.0
  O2-  O6  1  0.35900000  0.00750000  0.06600000  1.0
  O2-  O6  1  0.35900000  0.50750000  0.06600000  1.0
  O2-  O6  1  0.85900000  0.00750000  0.06600000  1.0
  O2-  O6  1  0.85900000  0.50750000  0.06600000  1.0
  O2-  O7  1  0.16050000  0.30450000  0.37000000  1.0
  O2-  O7  1  0.16050000  0.80450000  0.37000000  1.0
  O2-  O7  1  0.66050000  0.30450000  0.37000000  1.0
  O2-  O7  1  0.66050000  0.80450000  0.37000000  1.0
  O2-  O7  1  0.30450000  0.18500000  0.32100000  1.0
  O2-  O7  1  0.30450000  0.68500000  0.32100000  1.0
  O2-  O7  1  0.80450000  0.18500000  0.32100000  1.0
  O2-  O7  1  0.80450000  0.68500000  0.32100000  1.0
  O2-  O7  1  0.18500000  0.16050000  0.60900000  1.0
  O2-  O7  1  0.18500000  0.66050000  0.60900000  1.0
  O2-  O7  1  0.68500000  0.16050000  0.60900000  1.0
  O2-  O7  1  0.68500000  0.66050000  0.60900000  1.0
  O2-  O8  1  0.36350000  0.19150000  0.71000000  1.0
  O2-  O8  1  0.36350000  0.69150000  0.71000000  1.0
  O2-  O8  1  0.86350000  0.19150000  0.71000000  1.0
  O2-  O8  1  0.86350000  0.69150000  0.71000000  1.0
  O2-  O8  1  0.19150000  0.35500000  0.72700000  1.0
  O2-  O8  1  0.19150000  0.85500000  0.72700000  1.0
  O2-  O8  1  0.69150000  0.35500000  0.72700000  1.0
  O2-  O8  1  0.69150000  0.85500000  0.72700000  1.0
  O2-  O8  1  0.35500000  0.36350000  0.38300000  1.0
  O2-  O8  1  0.35500000  0.86350000  0.38300000  1.0
  O2-  O8  1  0.85500000  0.36350000  0.38300000  1.0
  O2-  O8  1  0.85500000  0.86350000  0.38300000  1.0
