# generated using pymatgen
data_Li7PN4
_symmetry_space_group_name_H-M   'P 1'
_cell_length_a   18.72960000
_cell_length_b   9.36480000
_cell_length_c   9.36480000
_cell_angle_alpha   90.00000000
_cell_angle_beta   90.00000000
_cell_angle_gamma   90.00000000
_symmetry_Int_Tables_number   1
_chemical_formula_structural   Li7PN4
_chemical_formula_sum   'Li112 P16 N64'
_cell_volume   1642.57616263
_cell_formula_units_Z   16
loop_
 _symmetry_equiv_pos_site_id
 _symmetry_equiv_pos_as_xyz
  1  'x, y, z'
loop_
 _atom_type_symbol
 _atom_type_oxidation_number
  Li+  1.0
  P5+  5.0
  N3-  -3.0
loop_
 _atom_site_type_symbol
 _atom_site_label
 _atom_site_symmetry_multiplicity
 _atom_site_fract_x
 _atom_site_fract_y
 _atom_site_fract_z
 _atom_site_occupancy
  Li+  Li0  1  0.00000000  0.50000000  0.75000000  1.0
  Li+  Li1  1  0.50284692  0.49560539  0.75351514  1.0
  Li+  Li2  1  0.00000000  0.00000000  0.25000000  1.0
  Li+  Li3  1  0.50000000  0.00000000  0.25000000  1.0
  Li+  Li4  1  0.25000000  0.00000000  0.75000000  1.0
  Li+  Li5  1  0.75000000  0.00000000  0.75000000  1.0
  Li+  Li6  1  0.25000000  0.50000000  0.75000000  1.0
  Li+  Li7  1  0.75000000  0.50000000  0.75000000  1.0
  Li+  Li8  1  0.25000000  0.00000000  0.25000000  1.0
  Li+  Li9  1  0.75000000  0.00000000  0.25000000  1.0
  Li+  Li10  1  0.00000000  0.50000000  0.25000000  1.0
  Li+  Li11  1  0.50000000  0.50000000  0.25000000  1.0
  Li+  Li12  1  0.00000000  0.75000000  0.25000000  1.0
  Li+  Li13  1  0.49713115  0.74766843  0.24740064  1.0
  Li+  Li14  1  0.24931761  0.00213371  0.00404873  1.0
  Li+  Li15  1  0.75000000  0.00000000  0.00000000  1.0
  Li+  Li16  1  0.12403704  0.50315556  0.75376595  1.0
  Li+  Li17  1  0.62500000  0.50000000  0.75000000  1.0
  Li+  Li18  1  0.25000000  0.00000000  0.50000000  1.0
  Li+  Li19  1  0.75046330  0.00199819  0.49944266  1.0
  Li+  Li20  1  0.37500000  0.50000000  0.75000000  1.0
  Li+  Li21  1  0.87500000  0.50000000  0.75000000  1.0
  Li+  Li22  1  0.00220189  0.25318237  0.25030121  1.0
  Li+  Li23  1  0.49754891  0.25278544  0.24989000  1.0
  Li+  Li24  1  0.13626927  0.71970857  0.02807741  1.0
  Li+  Li25  1  0.63775000  0.72450000  0.02550000  1.0
  Li+  Li26  1  0.36225000  0.72450000  0.47450000  1.0
  Li+  Li27  1  0.86225000  0.72450000  0.47450000  1.0
  Li+  Li28  1  0.13775000  0.27550000  0.47450000  1.0
  Li+  Li29  1  0.63775000  0.27550000  0.47450000  1.0
  Li+  Li30  1  0.36180290  0.27328071  0.02393690  1.0
  Li+  Li31  1  0.86225000  0.27550000  0.02550000  1.0
  Li+  Li32  1  0.38775000  0.77550000  0.97450000  1.0
  Li+  Li33  1  0.88775000  0.77550000  0.97450000  1.0
  Li+  Li34  1  0.11225000  0.22450000  0.97450000  1.0
  Li+  Li35  1  0.61528567  0.22531357  0.97537083  1.0
  Li+  Li36  1  0.38775000  0.22450000  0.52550000  1.0
  Li+  Li37  1  0.88775000  0.22450000  0.52550000  1.0
  Li+  Li38  1  0.11225000  0.77550000  0.52550000  1.0
  Li+  Li39  1  0.61353352  0.77559294  0.52725201  1.0
  Li+  Li40  1  0.26290000  0.74930000  0.01140000  1.0
  Li+  Li41  1  0.76290000  0.74930000  0.01140000  1.0
  Li+  Li42  1  0.13070000  0.47420000  0.00070000  1.0
  Li+  Li43  1  0.63152301  0.46934949  0.99745435  1.0
  Li+  Li44  1  0.12535000  0.73860000  0.27580000  1.0
  Li+  Li45  1  0.62535000  0.73860000  0.27580000  1.0
  Li+  Li46  1  0.23710000  0.74930000  0.48860000  1.0
  Li+  Li47  1  0.73710000  0.74930000  0.48860000  1.0
  Li+  Li48  1  0.36930000  0.47420000  0.49930000  1.0
  Li+  Li49  1  0.86930000  0.47420000  0.49930000  1.0
  Li+  Li50  1  0.37465000  0.73860000  0.22420000  1.0
  Li+  Li51  1  0.87465000  0.73860000  0.22420000  1.0
  Li+  Li52  1  0.26290000  0.25070000  0.48860000  1.0
  Li+  Li53  1  0.76290000  0.25070000  0.48860000  1.0
  Li+  Li54  1  0.13070000  0.52580000  0.49930000  1.0
  Li+  Li55  1  0.63070000  0.52580000  0.49930000  1.0
  Li+  Li56  1  0.12553090  0.26049626  0.22370335  1.0
  Li+  Li57  1  0.62535000  0.26140000  0.22420000  1.0
  Li+  Li58  1  0.23941443  0.24942813  0.01282315  1.0
  Li+  Li59  1  0.73426215  0.25242361  0.01038649  1.0
  Li+  Li60  1  0.36930000  0.52580000  0.00070000  1.0
  Li+  Li61  1  0.86930000  0.52580000  0.00070000  1.0
  Li+  Li62  1  0.37465000  0.26140000  0.27580000  1.0
  Li+  Li63  1  0.87465000  0.26140000  0.27580000  1.0
  Li+  Li64  1  0.01290000  0.76140000  0.99930000  1.0
  Li+  Li65  1  0.51290000  0.76140000  0.99930000  1.0
  Li+  Li66  1  0.38070000  0.75070000  0.72420000  1.0
  Li+  Li67  1  0.88070000  0.75070000  0.72420000  1.0
  Li+  Li68  1  0.37535000  0.02580000  0.98860000  1.0
  Li+  Li69  1  0.87535000  0.02580000  0.98860000  1.0
  Li+  Li70  1  0.48923550  0.23635036  0.00149009  1.0
  Li+  Li71  1  0.98945325  0.24232244  0.00311856  1.0
  Li+  Li72  1  0.11930000  0.24930000  0.72420000  1.0
  Li+  Li73  1  0.62607407  0.24836351  0.72385491  1.0
  Li+  Li74  1  0.12465000  0.97420000  0.98860000  1.0
  Li+  Li75  1  0.62465000  0.97420000  0.98860000  1.0
  Li+  Li76  1  0.01290000  0.23860000  0.50070000  1.0
  Li+  Li77  1  0.51290000  0.23860000  0.50070000  1.0
  Li+  Li78  1  0.38070000  0.24930000  0.77580000  1.0
  Li+  Li79  1  0.88070000  0.24930000  0.77580000  1.0
  Li+  Li80  1  0.37535000  0.97420000  0.51140000  1.0
  Li+  Li81  1  0.87535000  0.97420000  0.51140000  1.0
  Li+  Li82  1  0.48815959  0.76082536  0.50167778  1.0
  Li+  Li83  1  0.98710000  0.76140000  0.50070000  1.0
  Li+  Li84  1  0.12191776  0.75354015  0.77477130  1.0
  Li+  Li85  1  0.61930000  0.75070000  0.77580000  1.0
  Li+  Li86  1  0.12465000  0.02580000  0.51140000  1.0
  Li+  Li87  1  0.62465000  0.02580000  0.51140000  1.0
  Li+  Li88  1  0.25000000  0.75760000  0.25000000  1.0
  Li+  Li89  1  0.75000000  0.75760000  0.25000000  1.0
  Li+  Li90  1  0.25007659  0.49887333  0.99569566  1.0
  Li+  Li91  1  0.75212463  0.49749202  0.99480143  1.0
  Li+  Li92  1  0.12120000  0.50000000  0.25000000  1.0
  Li+  Li93  1  0.62120000  0.50000000  0.25000000  1.0
  Li+  Li94  1  0.25000000  0.50000000  0.50760000  1.0
  Li+  Li95  1  0.75352949  0.50035555  0.51190070  1.0
  Li+  Li96  1  0.37880000  0.50000000  0.25000000  1.0
  Li+  Li97  1  0.87880000  0.50000000  0.25000000  1.0
  Li+  Li98  1  0.25000000  0.24240000  0.25000000  1.0
  Li+  Li99  1  0.75000000  0.24240000  0.25000000  1.0
  Li+  Li100  1  0.00000000  0.00000000  0.00760000  1.0
  Li+  Li101  1  0.50000000  0.00000000  0.00760000  1.0
  Li+  Li102  1  0.99869447  0.73931308  0.75330211  1.0
  Li+  Li103  1  0.50000000  0.74240000  0.75000000  1.0
  Li+  Li104  1  0.37120000  0.00000000  0.75000000  1.0
  Li+  Li105  1  0.87120000  0.00000000  0.75000000  1.0
  Li+  Li106  1  0.00000000  0.25760000  0.75000000  1.0
  Li+  Li107  1  0.50000000  0.25760000  0.75000000  1.0
  Li+  Li108  1  0.12880000  0.00000000  0.75000000  1.0
  Li+  Li109  1  0.62880000  0.00000000  0.75000000  1.0
  Li+  Li110  1  0.00000000  0.00000000  0.49240000  1.0
  Li+  Li111  1  0.50000000  0.00000000  0.49240000  1.0
  P5+  P112  1  0.12508623  0.99903570  0.24929874  1.0
  P5+  P113  1  0.62500000  0.00000000  0.25000000  1.0
  P5+  P114  1  0.24674542  0.75078094  0.74913115  1.0
  P5+  P115  1  0.75442054  0.74966762  0.74920201  1.0
  P5+  P116  1  0.00000000  0.50000000  0.00000000  1.0
  P5+  P117  1  0.49679859  0.50246244  0.00120227  1.0
  P5+  P118  1  0.37500000  0.00000000  0.25000000  1.0
  P5+  P119  1  0.87500000  0.00000000  0.25000000  1.0
  P5+  P120  1  0.00000000  0.50000000  0.50000000  1.0
  P5+  P121  1  0.50000000  0.50000000  0.50000000  1.0
  P5+  P122  1  0.25000000  0.25000000  0.75000000  1.0
  P5+  P123  1  0.74855487  0.25499095  0.75056561  1.0
  P5+  P124  1  0.24931225  0.49821147  0.25052942  1.0
  P5+  P125  1  0.74653794  0.49990301  0.25242836  1.0
  P5+  P126  1  0.00333629  0.99765422  0.75085746  1.0
  P5+  P127  1  0.50000000  0.00000000  0.75000000  1.0
  N3-  N128  1  0.19940000  0.85320000  0.86560000  1.0
  N3-  N129  1  0.70158567  0.85055375  0.86235763  1.0
  N3-  N130  1  0.05780000  0.60120000  0.89680000  1.0
  N3-  N131  1  0.55780000  0.60120000  0.89680000  1.0
  N3-  N132  1  0.07340000  0.88440000  0.14880000  1.0
  N3-  N133  1  0.57340000  0.88440000  0.14880000  1.0
  N3-  N134  1  0.30060000  0.85320000  0.63440000  1.0
  N3-  N135  1  0.80060000  0.85320000  0.63440000  1.0
  N3-  N136  1  0.44107233  0.60305488  0.60689240  1.0
  N3-  N137  1  0.94220000  0.60120000  0.60320000  1.0
  N3-  N138  1  0.42660000  0.88440000  0.35120000  1.0
  N3-  N139  1  0.92454199  0.88400688  0.34814906  1.0
  N3-  N140  1  0.19940000  0.14680000  0.63440000  1.0
  N3-  N141  1  0.69940000  0.14680000  0.63440000  1.0
  N3-  N142  1  0.05780000  0.39880000  0.60320000  1.0
  N3-  N143  1  0.55780000  0.39880000  0.60320000  1.0
  N3-  N144  1  0.07340000  0.11560000  0.35120000  1.0
  N3-  N145  1  0.57340000  0.11560000  0.35120000  1.0
  N3-  N146  1  0.30060000  0.14680000  0.86560000  1.0
  N3-  N147  1  0.80060000  0.14680000  0.86560000  1.0
  N3-  N148  1  0.44220000  0.39880000  0.89680000  1.0
  N3-  N149  1  0.94293339  0.39925170  0.89221348  1.0
  N3-  N150  1  0.42660000  0.11560000  0.14880000  1.0
  N3-  N151  1  0.92660000  0.11560000  0.14880000  1.0
  N3-  N152  1  0.44940000  0.61560000  0.10320000  1.0
  N3-  N153  1  0.95200312  0.61740845  0.10318342  1.0
  N3-  N154  1  0.30780000  0.64680000  0.85120000  1.0
  N3-  N155  1  0.80792278  0.64292683  0.85014185  1.0
  N3-  N156  1  0.32340000  0.89880000  0.13440000  1.0
  N3-  N157  1  0.82340000  0.89880000  0.13440000  1.0
  N3-  N158  1  0.05060000  0.38440000  0.10320000  1.0
  N3-  N159  1  0.54770840  0.38112830  0.10552603  1.0
  N3-  N160  1  0.19220000  0.35320000  0.85120000  1.0
  N3-  N161  1  0.69220000  0.35320000  0.85120000  1.0
  N3-  N162  1  0.17947053  0.10207227  0.13436118  1.0
  N3-  N163  1  0.67261571  0.09831654  0.13228206  1.0
  N3-  N164  1  0.44940000  0.38440000  0.39680000  1.0
  N3-  N165  1  0.94940000  0.38440000  0.39680000  1.0
  N3-  N166  1  0.30780000  0.35320000  0.64880000  1.0
  N3-  N167  1  0.80780000  0.35320000  0.64880000  1.0
  N3-  N168  1  0.32511810  0.10386851  0.36741657  1.0
  N3-  N169  1  0.82411185  0.10157770  0.36500638  1.0
  N3-  N170  1  0.05060000  0.61560000  0.39680000  1.0
  N3-  N171  1  0.54600537  0.62182150  0.39411028  1.0
  N3-  N172  1  0.19220000  0.64680000  0.64880000  1.0
  N3-  N173  1  0.69220000  0.64680000  0.64880000  1.0
  N3-  N174  1  0.17660000  0.89880000  0.36560000  1.0
  N3-  N175  1  0.67396452  0.90023334  0.36732738  1.0
  N3-  N176  1  0.19800000  0.60400000  0.14600000  1.0
  N3-  N177  1  0.69631424  0.60060349  0.14981948  1.0
  N3-  N178  1  0.30200000  0.60400000  0.35400000  1.0
  N3-  N179  1  0.80200000  0.60400000  0.35400000  1.0
  N3-  N180  1  0.19800000  0.39600000  0.35400000  1.0
  N3-  N181  1  0.69800000  0.39600000  0.35400000  1.0
  N3-  N182  1  0.30488059  0.39570362  0.14635980  1.0
  N3-  N183  1  0.80200000  0.39600000  0.14600000  1.0
  N3-  N184  1  0.44800000  0.89600000  0.85400000  1.0
  N3-  N185  1  0.94800000  0.89600000  0.85400000  1.0
  N3-  N186  1  0.05788579  0.10701436  0.85458939  1.0
  N3-  N187  1  0.55200000  0.10400000  0.85400000  1.0
  N3-  N188  1  0.44800000  0.10400000  0.64600000  1.0
  N3-  N189  1  0.94800000  0.10400000  0.64600000  1.0
  N3-  N190  1  0.05200000  0.89600000  0.64600000  1.0
  N3-  N191  1  0.55200000  0.89600000  0.64600000  1.0
