# generated using pymatgen
data_Li7PN4
_symmetry_space_group_name_H-M   'P 1'
_cell_length_a   9.29217176
_cell_length_b   18.58434352
_cell_length_c   9.29217176
_cell_angle_alpha   90.00000000
_cell_angle_beta   90.00000000
_cell_angle_gamma   90.00000000
_symmetry_Int_Tables_number   1
_chemical_formula_structural   Li7PN4
_chemical_formula_sum   'Li112 P16 N64'
_cell_volume   1604.65503167
_cell_formula_units_Z   16
loop_
 _symmetry_equiv_pos_site_id
 _symmetry_equiv_pos_as_xyz
  1  'x, y, z'
loop_
 _atom_type_symbol
 _atom_type_oxidation_number
  Li+  1.0
  P5+  5.0
  N3-  -3.0
loop_
 _atom_site_type_symbol
 _atom_site_label
 _atom_site_symmetry_multiplicity
 _atom_site_fract_x
 _atom_site_fract_y
 _atom_site_fract_z
 _atom_site_occupancy
  Li+  Li0  1  0.00000000  0.66666667  0.50000000  1.0
  Li+  Li1  1  0.00000000  0.16666667  0.50000000  1.0
  Li+  Li2  1  0.50000000  0.66666667  0.00000000  1.0
  Li+  Li3  1  0.50000000  0.16666667  0.00000000  1.0
  Li+  Li4  1  0.00000000  0.41666667  0.00000000  1.0
  Li+  Li5  1  0.00000000  0.91666667  0.00000000  1.0
  Li+  Li6  1  0.00000000  0.41666667  0.50000000  1.0
  Li+  Li7  1  0.00000000  0.91666667  0.50000000  1.0
  Li+  Li8  1  0.50000000  0.41666667  0.00000000  1.0
  Li+  Li9  1  0.50000000  0.91666667  0.00000000  1.0
  Li+  Li10  1  0.50000000  0.66666667  0.50000000  1.0
  Li+  Li11  1  0.50000000  0.16666667  0.50000000  1.0
  Li+  Li12  1  0.50000000  0.66666667  0.25000000  1.0
  Li+  Li13  1  0.50000000  0.16666667  0.25000000  1.0
  Li+  Li14  1  0.25000000  0.41666667  0.00000000  1.0
  Li+  Li15  1  0.25000000  0.91666667  0.00000000  1.0
  Li+  Li16  1  0.00000000  0.54166667  0.50000000  1.0
  Li+  Li17  1  0.00000000  0.04166667  0.50000000  1.0
  Li+  Li18  1  0.75000000  0.41666667  0.00000000  1.0
  Li+  Li19  1  0.75000000  0.91666667  0.00000000  1.0
  Li+  Li20  1  0.00000000  0.29166667  0.50000000  1.0
  Li+  Li21  1  0.00000000  0.79166667  0.50000000  1.0
  Li+  Li22  1  0.50000000  0.66666667  0.75000000  1.0
  Li+  Li23  1  0.50000000  0.16666667  0.75000000  1.0
  Li+  Li24  1  0.27550000  0.52891667  0.27550000  1.0
  Li+  Li25  1  0.27550000  0.02891667  0.27550000  1.0
  Li+  Li26  1  0.72450000  0.30441667  0.27550000  1.0
  Li+  Li27  1  0.72450000  0.80441667  0.27550000  1.0
  Li+  Li28  1  0.72450000  0.52891667  0.72450000  1.0
  Li+  Li29  1  0.72450000  0.02891667  0.72450000  1.0
  Li+  Li30  1  0.27550000  0.30441667  0.72450000  1.0
  Li+  Li31  1  0.27550000  0.80441667  0.72450000  1.0
  Li+  Li32  1  0.22450000  0.27891667  0.22450000  1.0
  Li+  Li33  1  0.22450000  0.77891667  0.22450000  1.0
  Li+  Li34  1  0.22450000  0.55441667  0.77550000  1.0
  Li+  Li35  1  0.22450000  0.05441667  0.77550000  1.0
  Li+  Li36  1  0.77550000  0.27891667  0.77550000  1.0
  Li+  Li37  1  0.77550000  0.77891667  0.77550000  1.0
  Li+  Li38  1  0.77550000  0.55441667  0.22450000  1.0
  Li+  Li39  1  0.77550000  0.05441667  0.22450000  1.0
  Li+  Li40  1  0.26140000  0.40376667  0.25070000  1.0
  Li+  Li41  1  0.26140000  0.90376667  0.25070000  1.0
  Li+  Li42  1  0.25070000  0.53596667  0.52580000  1.0
  Li+  Li43  1  0.25070000  0.03596667  0.52580000  1.0
  Li+  Li44  1  0.52580000  0.54131667  0.26140000  1.0
  Li+  Li45  1  0.52580000  0.04131667  0.26140000  1.0
  Li+  Li46  1  0.73860000  0.42956667  0.25070000  1.0
  Li+  Li47  1  0.73860000  0.92956667  0.25070000  1.0
  Li+  Li48  1  0.74930000  0.29736667  0.52580000  1.0
  Li+  Li49  1  0.74930000  0.79736667  0.52580000  1.0
  Li+  Li50  1  0.47420000  0.29201667  0.26140000  1.0
  Li+  Li51  1  0.47420000  0.79201667  0.26140000  1.0
  Li+  Li52  1  0.73860000  0.40376667  0.74930000  1.0
  Li+  Li53  1  0.73860000  0.90376667  0.74930000  1.0
  Li+  Li54  1  0.74930000  0.53596667  0.47420000  1.0
  Li+  Li55  1  0.74930000  0.03596667  0.47420000  1.0
  Li+  Li56  1  0.47420000  0.54131667  0.73860000  1.0
  Li+  Li57  1  0.47420000  0.04131667  0.73860000  1.0
  Li+  Li58  1  0.26140000  0.42956667  0.74930000  1.0
  Li+  Li59  1  0.26140000  0.92956667  0.74930000  1.0
  Li+  Li60  1  0.25070000  0.29736667  0.47420000  1.0
  Li+  Li61  1  0.25070000  0.79736667  0.47420000  1.0
  Li+  Li62  1  0.52580000  0.29201667  0.73860000  1.0
  Li+  Li63  1  0.52580000  0.79201667  0.73860000  1.0
  Li+  Li64  1  0.24930000  0.65376667  0.23860000  1.0
  Li+  Li65  1  0.24930000  0.15376667  0.23860000  1.0
  Li+  Li66  1  0.97420000  0.28596667  0.24930000  1.0
  Li+  Li67  1  0.97420000  0.78596667  0.24930000  1.0
  Li+  Li68  1  0.23860000  0.29131667  0.97420000  1.0
  Li+  Li69  1  0.23860000  0.79131667  0.97420000  1.0
  Li+  Li70  1  0.24930000  0.17956667  0.76140000  1.0
  Li+  Li71  1  0.24930000  0.67956667  0.76140000  1.0
  Li+  Li72  1  0.97420000  0.54736667  0.75070000  1.0
  Li+  Li73  1  0.97420000  0.04736667  0.75070000  1.0
  Li+  Li74  1  0.23860000  0.54201667  0.02580000  1.0
  Li+  Li75  1  0.23860000  0.04201667  0.02580000  1.0
  Li+  Li76  1  0.75070000  0.65376667  0.76140000  1.0
  Li+  Li77  1  0.75070000  0.15376667  0.76140000  1.0
  Li+  Li78  1  0.02580000  0.28596667  0.75070000  1.0
  Li+  Li79  1  0.02580000  0.78596667  0.75070000  1.0
  Li+  Li80  1  0.76140000  0.29131667  0.02580000  1.0
  Li+  Li81  1  0.76140000  0.79131667  0.02580000  1.0
  Li+  Li82  1  0.75070000  0.17956667  0.23860000  1.0
  Li+  Li83  1  0.75070000  0.67956667  0.23860000  1.0
  Li+  Li84  1  0.02580000  0.54736667  0.24930000  1.0
  Li+  Li85  1  0.02580000  0.04736667  0.24930000  1.0
  Li+  Li86  1  0.76140000  0.54201667  0.97420000  1.0
  Li+  Li87  1  0.76140000  0.04201667  0.97420000  1.0
  Li+  Li88  1  0.50000000  0.41666667  0.24240000  1.0
  Li+  Li89  1  0.50000000  0.91666667  0.24240000  1.0
  Li+  Li90  1  0.24240000  0.41666667  0.50000000  1.0
  Li+  Li91  1  0.24240000  0.91666667  0.50000000  1.0
  Li+  Li92  1  0.50000000  0.54546667  0.50000000  1.0
  Li+  Li93  1  0.50000000  0.04546667  0.50000000  1.0
  Li+  Li94  1  0.75760000  0.41666667  0.50000000  1.0
  Li+  Li95  1  0.75760000  0.91666667  0.50000000  1.0
  Li+  Li96  1  0.50000000  0.28786667  0.50000000  1.0
  Li+  Li97  1  0.50000000  0.78786667  0.50000000  1.0
  Li+  Li98  1  0.50000000  0.41666667  0.75760000  1.0
  Li+  Li99  1  0.50000000  0.91666667  0.75760000  1.0
  Li+  Li100  1  0.25760000  0.66666667  0.00000000  1.0
  Li+  Li101  1  0.25760000  0.16666667  0.00000000  1.0
  Li+  Li102  1  0.00000000  0.66666667  0.25760000  1.0
  Li+  Li103  1  0.00000000  0.16666667  0.25760000  1.0
  Li+  Li104  1  0.00000000  0.29546667  0.00000000  1.0
  Li+  Li105  1  0.00000000  0.79546667  0.00000000  1.0
  Li+  Li106  1  0.00000000  0.66666667  0.74240000  1.0
  Li+  Li107  1  0.00000000  0.16666667  0.74240000  1.0
  Li+  Li108  1  0.00000000  0.53786667  0.00000000  1.0
  Li+  Li109  1  0.00000000  0.03786667  0.00000000  1.0
  Li+  Li110  1  0.74240000  0.66666667  0.00000000  1.0
  Li+  Li111  1  0.74240000  0.16666667  0.00000000  1.0
  P5+  P112  1  0.50000000  0.54166667  0.00000000  1.0
  P5+  P113  1  0.50000000  0.04166667  0.00000000  1.0
  P5+  P114  1  0.00000000  0.41666667  0.25000000  1.0
  P5+  P115  1  0.00000000  0.91666667  0.25000000  1.0
  P5+  P116  1  0.25000000  0.66666667  0.50000000  1.0
  P5+  P117  1  0.25000000  0.16666667  0.50000000  1.0
  P5+  P118  1  0.50000000  0.29166667  0.00000000  1.0
  P5+  P119  1  0.50000000  0.79166667  0.00000000  1.0
  P5+  P120  1  0.75000000  0.66666667  0.50000000  1.0
  P5+  P121  1  0.75000000  0.16666667  0.50000000  1.0
  P5+  P122  1  0.00000000  0.41666667  0.75000000  1.0
  P5+  P123  1  0.00000000  0.91666667  0.75000000  1.0
  P5+  P124  1  0.50000000  0.41666667  0.50000000  1.0
  P5+  P125  1  0.50000000  0.91666667  0.50000000  1.0
  P5+  P126  1  0.00000000  0.66666667  0.00000000  1.0
  P5+  P127  1  0.00000000  0.16666667  0.00000000  1.0
  N3-  N128  1  0.11560000  0.46726667  0.14680000  1.0
  N3-  N129  1  0.11560000  0.96726667  0.14680000  1.0
  N3-  N130  1  0.14680000  0.60886667  0.39880000  1.0
  N3-  N131  1  0.14680000  0.10886667  0.39880000  1.0
  N3-  N132  1  0.39880000  0.59326667  0.11560000  1.0
  N3-  N133  1  0.39880000  0.09326667  0.11560000  1.0
  N3-  N134  1  0.88440000  0.36606667  0.14680000  1.0
  N3-  N135  1  0.88440000  0.86606667  0.14680000  1.0
  N3-  N136  1  0.85320000  0.22446667  0.39880000  1.0
  N3-  N137  1  0.85320000  0.72446667  0.39880000  1.0
  N3-  N138  1  0.60120000  0.24006667  0.11560000  1.0
  N3-  N139  1  0.60120000  0.74006667  0.11560000  1.0
  N3-  N140  1  0.88440000  0.46726667  0.85320000  1.0
  N3-  N141  1  0.88440000  0.96726667  0.85320000  1.0
  N3-  N142  1  0.85320000  0.60886667  0.60120000  1.0
  N3-  N143  1  0.85320000  0.10886667  0.60120000  1.0
  N3-  N144  1  0.60120000  0.59326667  0.88440000  1.0
  N3-  N145  1  0.60120000  0.09326667  0.88440000  1.0
  N3-  N146  1  0.11560000  0.36606667  0.85320000  1.0
  N3-  N147  1  0.11560000  0.86606667  0.85320000  1.0
  N3-  N148  1  0.14680000  0.22446667  0.60120000  1.0
  N3-  N149  1  0.14680000  0.72446667  0.60120000  1.0
  N3-  N150  1  0.39880000  0.24006667  0.88440000  1.0
  N3-  N151  1  0.39880000  0.74006667  0.88440000  1.0
  N3-  N152  1  0.35320000  0.21726667  0.38440000  1.0
  N3-  N153  1  0.35320000  0.71726667  0.38440000  1.0
  N3-  N154  1  0.10120000  0.35886667  0.35320000  1.0
  N3-  N155  1  0.10120000  0.85886667  0.35320000  1.0
  N3-  N156  1  0.38440000  0.34326667  0.10120000  1.0
  N3-  N157  1  0.38440000  0.84326667  0.10120000  1.0
  N3-  N158  1  0.35320000  0.61606667  0.61560000  1.0
  N3-  N159  1  0.35320000  0.11606667  0.61560000  1.0
  N3-  N160  1  0.10120000  0.47446667  0.64680000  1.0
  N3-  N161  1  0.10120000  0.97446667  0.64680000  1.0
  N3-  N162  1  0.38440000  0.49006667  0.89880000  1.0
  N3-  N163  1  0.38440000  0.99006667  0.89880000  1.0
  N3-  N164  1  0.64680000  0.21726667  0.61560000  1.0
  N3-  N165  1  0.64680000  0.71726667  0.61560000  1.0
  N3-  N166  1  0.89880000  0.35886667  0.64680000  1.0
  N3-  N167  1  0.89880000  0.85886667  0.64680000  1.0
  N3-  N168  1  0.61560000  0.34326667  0.89880000  1.0
  N3-  N169  1  0.61560000  0.84326667  0.89880000  1.0
  N3-  N170  1  0.64680000  0.61606667  0.38440000  1.0
  N3-  N171  1  0.64680000  0.11606667  0.38440000  1.0
  N3-  N172  1  0.89880000  0.47446667  0.35320000  1.0
  N3-  N173  1  0.89880000  0.97446667  0.35320000  1.0
  N3-  N174  1  0.61560000  0.49006667  0.10120000  1.0
  N3-  N175  1  0.61560000  0.99006667  0.10120000  1.0
  N3-  N176  1  0.39600000  0.46866667  0.39600000  1.0
  N3-  N177  1  0.39600000  0.96866667  0.39600000  1.0
  N3-  N178  1  0.60400000  0.36466667  0.39600000  1.0
  N3-  N179  1  0.60400000  0.86466667  0.39600000  1.0
  N3-  N180  1  0.60400000  0.46866667  0.60400000  1.0
  N3-  N181  1  0.60400000  0.96866667  0.60400000  1.0
  N3-  N182  1  0.39600000  0.36466667  0.60400000  1.0
  N3-  N183  1  0.39600000  0.86466667  0.60400000  1.0
  N3-  N184  1  0.10400000  0.21866667  0.10400000  1.0
  N3-  N185  1  0.10400000  0.71866667  0.10400000  1.0
  N3-  N186  1  0.10400000  0.61466667  0.89600000  1.0
  N3-  N187  1  0.10400000  0.11466667  0.89600000  1.0
  N3-  N188  1  0.89600000  0.21866667  0.89600000  1.0
  N3-  N189  1  0.89600000  0.71866667  0.89600000  1.0
  N3-  N190  1  0.89600000  0.61466667  0.10400000  1.0
  N3-  N191  1  0.89600000  0.11466667  0.10400000  1.0
