# generated using pymatgen
data_Li7PN4
_symmetry_space_group_name_H-M   'P 1'
_cell_length_a   18.72960000
_cell_length_b   9.36480000
_cell_length_c   9.36480000
_cell_angle_alpha   90.00000000
_cell_angle_beta   90.00000000
_cell_angle_gamma   90.00000000
_symmetry_Int_Tables_number   1
_chemical_formula_structural   Li7PN4
_chemical_formula_sum   'Li112 P16 N64'
_cell_volume   1642.57616263
_cell_formula_units_Z   16
loop_
 _symmetry_equiv_pos_site_id
 _symmetry_equiv_pos_as_xyz
  1  'x, y, z'
loop_
 _atom_type_symbol
 _atom_type_oxidation_number
  Li+  1.0
  P5+  5.0
  N3-  -3.0
loop_
 _atom_site_type_symbol
 _atom_site_label
 _atom_site_symmetry_multiplicity
 _atom_site_fract_x
 _atom_site_fract_y
 _atom_site_fract_z
 _atom_site_occupancy
  Li+  Li1  1  0.00000000  0.00000000  0.50000000  1.0
  Li+  Li1  1  0.50000000  0.00000000  0.50000000  1.0
  Li+  Li1  1  0.00000000  0.50000000  0.00000000  1.0
  Li+  Li1  1  0.50000000  0.50000000  0.00000000  1.0
  Li+  Li1  1  0.25000000  0.00000000  0.00000000  1.0
  Li+  Li1  1  0.75000000  0.00000000  0.00000000  1.0
  Li+  Li1  1  0.25000000  0.00000000  0.50000000  1.0
  Li+  Li1  1  0.75000000  0.00000000  0.50000000  1.0
  Li+  Li1  1  0.25000000  0.50000000  0.00000000  1.0
  Li+  Li1  1  0.75000000  0.50000000  0.00000000  1.0
  Li+  Li1  1  0.00000000  0.50000000  0.50000000  1.0
  Li+  Li1  1  0.50000000  0.50000000  0.50000000  1.0
  Li+  Li2  1  0.00000000  0.50000000  0.25000000  1.0
  Li+  Li2  1  0.50000000  0.50000000  0.25000000  1.0
  Li+  Li2  1  0.25000000  0.75000000  0.00000000  1.0
  Li+  Li2  1  0.75000000  0.75000000  0.00000000  1.0
  Li+  Li2  1  0.12500000  0.00000000  0.50000000  1.0
  Li+  Li2  1  0.62500000  0.00000000  0.50000000  1.0
  Li+  Li2  1  0.25000000  0.25000000  0.00000000  1.0
  Li+  Li2  1  0.75000000  0.25000000  0.00000000  1.0
  Li+  Li2  1  0.37500000  0.00000000  0.50000000  1.0
  Li+  Li2  1  0.87500000  0.00000000  0.50000000  1.0
  Li+  Li2  1  0.00000000  0.50000000  0.75000000  1.0
  Li+  Li2  1  0.50000000  0.50000000  0.75000000  1.0
  Li+  Li3  1  0.13775000  0.72450000  0.27550000  1.0
  Li+  Li3  1  0.63775000  0.72450000  0.27550000  1.0
  Li+  Li3  1  0.36225000  0.27550000  0.27550000  1.0
  Li+  Li3  1  0.86225000  0.27550000  0.27550000  1.0
  Li+  Li3  1  0.13775000  0.27550000  0.72450000  1.0
  Li+  Li3  1  0.63775000  0.27550000  0.72450000  1.0
  Li+  Li3  1  0.36225000  0.72450000  0.72450000  1.0
  Li+  Li3  1  0.86225000  0.72450000  0.72450000  1.0
  Li+  Li3  1  0.38775000  0.77550000  0.22450000  1.0
  Li+  Li3  1  0.88775000  0.77550000  0.22450000  1.0
  Li+  Li3  1  0.11225000  0.77550000  0.77550000  1.0
  Li+  Li3  1  0.61225000  0.77550000  0.77550000  1.0
  Li+  Li3  1  0.38775000  0.22450000  0.77550000  1.0
  Li+  Li3  1  0.88775000  0.22450000  0.77550000  1.0
  Li+  Li3  1  0.11225000  0.22450000  0.22450000  1.0
  Li+  Li3  1  0.61225000  0.22450000  0.22450000  1.0
  Li+  Li4  1  0.26290000  0.73860000  0.25070000  1.0
  Li+  Li4  1  0.76290000  0.73860000  0.25070000  1.0
  Li+  Li4  1  0.13070000  0.74930000  0.52580000  1.0
  Li+  Li4  1  0.63070000  0.74930000  0.52580000  1.0
  Li+  Li4  1  0.12535000  0.47420000  0.26140000  1.0
  Li+  Li4  1  0.62535000  0.47420000  0.26140000  1.0
  Li+  Li4  1  0.23710000  0.26140000  0.25070000  1.0
  Li+  Li4  1  0.73710000  0.26140000  0.25070000  1.0
  Li+  Li4  1  0.36930000  0.25070000  0.52580000  1.0
  Li+  Li4  1  0.86930000  0.25070000  0.52580000  1.0
  Li+  Li4  1  0.37465000  0.52580000  0.26140000  1.0
  Li+  Li4  1  0.87465000  0.52580000  0.26140000  1.0
  Li+  Li4  1  0.26290000  0.26140000  0.74930000  1.0
  Li+  Li4  1  0.76290000  0.26140000  0.74930000  1.0
  Li+  Li4  1  0.13070000  0.25070000  0.47420000  1.0
  Li+  Li4  1  0.63070000  0.25070000  0.47420000  1.0
  Li+  Li4  1  0.12535000  0.52580000  0.73860000  1.0
  Li+  Li4  1  0.62535000  0.52580000  0.73860000  1.0
  Li+  Li4  1  0.23710000  0.73860000  0.74930000  1.0
  Li+  Li4  1  0.73710000  0.73860000  0.74930000  1.0
  Li+  Li4  1  0.36930000  0.74930000  0.47420000  1.0
  Li+  Li4  1  0.86930000  0.74930000  0.47420000  1.0
  Li+  Li4  1  0.37465000  0.47420000  0.73860000  1.0
  Li+  Li4  1  0.87465000  0.47420000  0.73860000  1.0
  Li+  Li4  1  0.01290000  0.75070000  0.23860000  1.0
  Li+  Li4  1  0.51290000  0.75070000  0.23860000  1.0
  Li+  Li4  1  0.38070000  0.02580000  0.24930000  1.0
  Li+  Li4  1  0.88070000  0.02580000  0.24930000  1.0
  Li+  Li4  1  0.37535000  0.76140000  0.97420000  1.0
  Li+  Li4  1  0.87535000  0.76140000  0.97420000  1.0
  Li+  Li4  1  0.48710000  0.75070000  0.76140000  1.0
  Li+  Li4  1  0.98710000  0.75070000  0.76140000  1.0
  Li+  Li4  1  0.11930000  0.02580000  0.75070000  1.0
  Li+  Li4  1  0.61930000  0.02580000  0.75070000  1.0
  Li+  Li4  1  0.12465000  0.76140000  0.02580000  1.0
  Li+  Li4  1  0.62465000  0.76140000  0.02580000  1.0
  Li+  Li4  1  0.01290000  0.24930000  0.76140000  1.0
  Li+  Li4  1  0.51290000  0.24930000  0.76140000  1.0
  Li+  Li4  1  0.38070000  0.97420000  0.75070000  1.0
  Li+  Li4  1  0.88070000  0.97420000  0.75070000  1.0
  Li+  Li4  1  0.37535000  0.23860000  0.02580000  1.0
  Li+  Li4  1  0.87535000  0.23860000  0.02580000  1.0
  Li+  Li4  1  0.48710000  0.24930000  0.23860000  1.0
  Li+  Li4  1  0.98710000  0.24930000  0.23860000  1.0
  Li+  Li4  1  0.11930000  0.97420000  0.24930000  1.0
  Li+  Li4  1  0.61930000  0.97420000  0.24930000  1.0
  Li+  Li4  1  0.12465000  0.23860000  0.97420000  1.0
  Li+  Li4  1  0.62465000  0.23860000  0.97420000  1.0
  Li+  Li5  1  0.25000000  0.50000000  0.24240000  1.0
  Li+  Li5  1  0.75000000  0.50000000  0.24240000  1.0
  Li+  Li5  1  0.25000000  0.75760000  0.50000000  1.0
  Li+  Li5  1  0.75000000  0.75760000  0.50000000  1.0
  Li+  Li5  1  0.12120000  0.50000000  0.50000000  1.0
  Li+  Li5  1  0.62120000  0.50000000  0.50000000  1.0
  Li+  Li5  1  0.25000000  0.24240000  0.50000000  1.0
  Li+  Li5  1  0.75000000  0.24240000  0.50000000  1.0
  Li+  Li5  1  0.37880000  0.50000000  0.50000000  1.0
  Li+  Li5  1  0.87880000  0.50000000  0.50000000  1.0
  Li+  Li5  1  0.25000000  0.50000000  0.75760000  1.0
  Li+  Li5  1  0.75000000  0.50000000  0.75760000  1.0
  Li+  Li5  1  0.00000000  0.74240000  0.00000000  1.0
  Li+  Li5  1  0.50000000  0.74240000  0.00000000  1.0
  Li+  Li5  1  0.00000000  0.00000000  0.25760000  1.0
  Li+  Li5  1  0.50000000  0.00000000  0.25760000  1.0
  Li+  Li5  1  0.37120000  0.00000000  0.00000000  1.0
  Li+  Li5  1  0.87120000  0.00000000  0.00000000  1.0
  Li+  Li5  1  0.00000000  0.00000000  0.74240000  1.0
  Li+  Li5  1  0.50000000  0.00000000  0.74240000  1.0
  Li+  Li5  1  0.12880000  0.00000000  0.00000000  1.0
  Li+  Li5  1  0.62880000  0.00000000  0.00000000  1.0
  Li+  Li5  1  0.00000000  0.25760000  0.00000000  1.0
  Li+  Li5  1  0.50000000  0.25760000  0.00000000  1.0
  P5+  P1  1  0.12500000  0.50000000  0.00000000  1.0
  P5+  P1  1  0.62500000  0.50000000  0.00000000  1.0
  P5+  P1  1  0.25000000  0.00000000  0.25000000  1.0
  P5+  P1  1  0.75000000  0.00000000  0.25000000  1.0
  P5+  P1  1  0.00000000  0.75000000  0.50000000  1.0
  P5+  P1  1  0.50000000  0.75000000  0.50000000  1.0
  P5+  P1  1  0.37500000  0.50000000  0.00000000  1.0
  P5+  P1  1  0.87500000  0.50000000  0.00000000  1.0
  P5+  P1  1  0.00000000  0.25000000  0.50000000  1.0
  P5+  P1  1  0.50000000  0.25000000  0.50000000  1.0
  P5+  P1  1  0.25000000  0.00000000  0.75000000  1.0
  P5+  P1  1  0.75000000  0.00000000  0.75000000  1.0
  P5+  P2  1  0.25000000  0.50000000  0.50000000  1.0
  P5+  P2  1  0.75000000  0.50000000  0.50000000  1.0
  P5+  P2  1  0.00000000  0.00000000  0.00000000  1.0
  P5+  P2  1  0.50000000  0.00000000  0.00000000  1.0
  N3-  N1  1  0.19940000  0.88440000  0.14680000  1.0
  N3-  N1  1  0.69940000  0.88440000  0.14680000  1.0
  N3-  N1  1  0.05780000  0.85320000  0.39880000  1.0
  N3-  N1  1  0.55780000  0.85320000  0.39880000  1.0
  N3-  N1  1  0.07340000  0.60120000  0.11560000  1.0
  N3-  N1  1  0.57340000  0.60120000  0.11560000  1.0
  N3-  N1  1  0.30060000  0.11560000  0.14680000  1.0
  N3-  N1  1  0.80060000  0.11560000  0.14680000  1.0
  N3-  N1  1  0.44220000  0.14680000  0.39880000  1.0
  N3-  N1  1  0.94220000  0.14680000  0.39880000  1.0
  N3-  N1  1  0.42660000  0.39880000  0.11560000  1.0
  N3-  N1  1  0.92660000  0.39880000  0.11560000  1.0
  N3-  N1  1  0.19940000  0.11560000  0.85320000  1.0
  N3-  N1  1  0.69940000  0.11560000  0.85320000  1.0
  N3-  N1  1  0.05780000  0.14680000  0.60120000  1.0
  N3-  N1  1  0.55780000  0.14680000  0.60120000  1.0
  N3-  N1  1  0.07340000  0.39880000  0.88440000  1.0
  N3-  N1  1  0.57340000  0.39880000  0.88440000  1.0
  N3-  N1  1  0.30060000  0.88440000  0.85320000  1.0
  N3-  N1  1  0.80060000  0.88440000  0.85320000  1.0
  N3-  N1  1  0.44220000  0.85320000  0.60120000  1.0
  N3-  N1  1  0.94220000  0.85320000  0.60120000  1.0
  N3-  N1  1  0.42660000  0.60120000  0.88440000  1.0
  N3-  N1  1  0.92660000  0.60120000  0.88440000  1.0
  N3-  N1  1  0.44940000  0.64680000  0.38440000  1.0
  N3-  N1  1  0.94940000  0.64680000  0.38440000  1.0
  N3-  N1  1  0.30780000  0.89880000  0.35320000  1.0
  N3-  N1  1  0.80780000  0.89880000  0.35320000  1.0
  N3-  N1  1  0.32340000  0.61560000  0.10120000  1.0
  N3-  N1  1  0.82340000  0.61560000  0.10120000  1.0
  N3-  N1  1  0.05060000  0.64680000  0.61560000  1.0
  N3-  N1  1  0.55060000  0.64680000  0.61560000  1.0
  N3-  N1  1  0.19220000  0.89880000  0.64680000  1.0
  N3-  N1  1  0.69220000  0.89880000  0.64680000  1.0
  N3-  N1  1  0.17660000  0.61560000  0.89880000  1.0
  N3-  N1  1  0.67660000  0.61560000  0.89880000  1.0
  N3-  N1  1  0.44940000  0.35320000  0.61560000  1.0
  N3-  N1  1  0.94940000  0.35320000  0.61560000  1.0
  N3-  N1  1  0.30780000  0.10120000  0.64680000  1.0
  N3-  N1  1  0.80780000  0.10120000  0.64680000  1.0
  N3-  N1  1  0.32340000  0.38440000  0.89880000  1.0
  N3-  N1  1  0.82340000  0.38440000  0.89880000  1.0
  N3-  N1  1  0.05060000  0.35320000  0.38440000  1.0
  N3-  N1  1  0.55060000  0.35320000  0.38440000  1.0
  N3-  N1  1  0.19220000  0.10120000  0.35320000  1.0
  N3-  N1  1  0.69220000  0.10120000  0.35320000  1.0
  N3-  N1  1  0.17660000  0.38440000  0.10120000  1.0
  N3-  N1  1  0.67660000  0.38440000  0.10120000  1.0
  N3-  N2  1  0.19800000  0.60400000  0.39600000  1.0
  N3-  N2  1  0.69800000  0.60400000  0.39600000  1.0
  N3-  N2  1  0.30200000  0.39600000  0.39600000  1.0
  N3-  N2  1  0.80200000  0.39600000  0.39600000  1.0
  N3-  N2  1  0.19800000  0.39600000  0.60400000  1.0
  N3-  N2  1  0.69800000  0.39600000  0.60400000  1.0
  N3-  N2  1  0.30200000  0.60400000  0.60400000  1.0
  N3-  N2  1  0.80200000  0.60400000  0.60400000  1.0
  N3-  N2  1  0.44800000  0.89600000  0.10400000  1.0
  N3-  N2  1  0.94800000  0.89600000  0.10400000  1.0
  N3-  N2  1  0.05200000  0.89600000  0.89600000  1.0
  N3-  N2  1  0.55200000  0.89600000  0.89600000  1.0
  N3-  N2  1  0.44800000  0.10400000  0.89600000  1.0
  N3-  N2  1  0.94800000  0.10400000  0.89600000  1.0
  N3-  N2  1  0.05200000  0.10400000  0.10400000  1.0
  N3-  N2  1  0.55200000  0.10400000  0.10400000  1.0
