# generated using pymatgen
data_Li3AlGe3(PO4)6
_symmetry_space_group_name_H-M   'P 1'
_cell_length_a   8.25260000
_cell_length_b   8.38057838
_cell_length_c   24.75780000
_cell_angle_alpha   60.50388225
_cell_angle_beta   120.00000000
_cell_angle_gamma   119.49611775
_symmetry_Int_Tables_number   1
_chemical_formula_structural   Li3AlGe3(PO4)6
_chemical_formula_sum   'Li9 Al3 Ge9 P18 O72'
_cell_volume   1219.91017740
_cell_formula_units_Z   3
loop_
 _symmetry_equiv_pos_site_id
 _symmetry_equiv_pos_as_xyz
  1  'x, y, z'
loop_
 _atom_type_symbol
 _atom_type_oxidation_number
  Li+  1.0
  Al3+  3.0
  Ge4+  4.0
  P5+  5.0
  O2-  -2.0
loop_
 _atom_site_type_symbol
 _atom_site_label
 _atom_site_symmetry_multiplicity
 _atom_site_fract_x
 _atom_site_fract_y
 _atom_site_fract_z
 _atom_site_occupancy
  Li+  Li0  1  0.66820000  0.32660000  0.27393333  1.0
  Li+  Li1  1  0.92863476  0.82553604  0.69489424  1.0
  Li+  Li2  1  0.33180000  0.67340000  0.22606667  1.0
  Li+  Li3  1  0.76862023  0.66864396  0.97429902  1.0
  Li+  Li4  1  0.57180000  0.67340000  0.49340000  1.0
  Li+  Li5  1  0.83180000  0.17340000  0.99340000  1.0
  Li+  Li6  1  0.50000000  0.50000000  0.58333333  1.0
  Li+  Li7  1  0.50000000  0.50000000  0.91666667  1.0
  Li+  Li8  1  0.00000000  0.00000000  0.41666667  1.0
  Al3+  Al9  1  0.85829000  0.57487000  0.46390333  1.0
  Al3+  Al10  1  0.64171000  0.92513000  0.53609667  1.0
  Al3+  Al11  1  0.14171000  0.42513000  0.03609667  1.0
  Ge4+  Ge12  1  0.35996658  0.07448264  0.63041742  1.0
  Ge4+  Ge13  1  0.35829000  0.07487000  0.29723667  1.0
  Ge4+  Ge14  1  0.35829000  0.07487000  0.96390333  1.0
  Ge4+  Ge15  1  0.86143178  0.57481895  0.13216167  1.0
  Ge4+  Ge16  1  0.85829000  0.57487000  0.79723667  1.0
  Ge4+  Ge17  1  0.64171000  0.92513000  0.20276333  1.0
  Ge4+  Ge18  1  0.64307850  0.92505671  0.87054954  1.0
  Ge4+  Ge19  1  0.14171000  0.42513000  0.70276333  1.0
  Ge4+  Ge20  1  0.14171000  0.42513000  0.36943000  1.0
  P5+  P21  1  0.25000000  0.75000000  0.42910000  1.0
  P5+  P22  1  0.25000000  0.75000000  0.09576667  1.0
  P5+  P23  1  0.25555852  0.74802163  0.76521838  1.0
  P5+  P24  1  0.53730000  0.75000000  0.66666667  1.0
  P5+  P25  1  0.53730000  0.75000000  0.33333333  1.0
  P5+  P26  1  0.53730000  0.75000000  0.00000000  1.0
  P5+  P27  1  0.96270000  0.75000000  0.57090000  1.0
  P5+  P28  1  0.96270000  0.75000000  0.23756667  1.0
  P5+  P29  1  0.96270000  0.75000000  0.90423333  1.0
  P5+  P30  1  0.46270000  0.25000000  0.50000000  1.0
  P5+  P31  1  0.46270000  0.25000000  0.16666667  1.0
  P5+  P32  1  0.46270000  0.25000000  0.83333333  1.0
  P5+  P33  1  0.04177495  0.24815356  0.59491895  1.0
  P5+  P34  1  0.03730000  0.25000000  0.26243333  1.0
  P5+  P35  1  0.03730000  0.25000000  0.92910000  1.0
  P5+  P36  1  0.75000000  0.25000000  0.73756667  1.0
  P5+  P37  1  0.75000000  0.25000000  0.40423333  1.0
  P5+  P38  1  0.74822024  0.24758727  0.07132087  1.0
  O2-  O39  1  0.28872000  0.93276000  0.70516000  1.0
  O2-  O40  1  0.28872000  0.93276000  0.37182667  1.0
  O2-  O41  1  0.28836802  0.93181673  0.03655207  1.0
  O2-  O42  1  0.50952000  0.93276000  0.65376000  1.0
  O2-  O43  1  0.50952000  0.93276000  0.32042667  1.0
  O2-  O44  1  0.51108268  0.93359535  0.98824002  1.0
  O2-  O45  1  0.13452000  0.93276000  0.58016000  1.0
  O2-  O46  1  0.13452000  0.93276000  0.24682667  1.0
  O2-  O47  1  0.13452000  0.93276000  0.91349333  1.0
  O2-  O48  1  0.63452000  0.43276000  0.48709333  1.0
  O2-  O49  1  0.63375211  0.43104387  0.15612156  1.0
  O2-  O50  1  0.63452000  0.43276000  0.82042667  1.0
  O2-  O51  1  0.01078511  0.43384378  0.53534886  1.0
  O2-  O52  1  0.01027093  0.42456717  0.20637639  1.0
  O2-  O53  1  0.00952000  0.43276000  0.87182667  1.0
  O2-  O54  1  0.78872000  0.43276000  0.74682667  1.0
  O2-  O55  1  0.78872000  0.43276000  0.41349333  1.0
  O2-  O56  1  0.78872000  0.43276000  0.08016000  1.0
  O2-  O57  1  0.71128000  0.06724000  0.46150667  1.0
  O2-  O58  1  0.71144611  0.06778114  0.12658393  1.0
  O2-  O59  1  0.71569393  0.06528913  0.79432028  1.0
  O2-  O60  1  0.49048000  0.06724000  0.51290667  1.0
  O2-  O61  1  0.49048000  0.06724000  0.17957333  1.0
  O2-  O62  1  0.49048000  0.06724000  0.84624000  1.0
  O2-  O63  1  0.86548000  0.06724000  0.58650667  1.0
  O2-  O64  1  0.86548000  0.06724000  0.25317333  1.0
  O2-  O65  1  0.86548000  0.06724000  0.91984000  1.0
  O2-  O66  1  0.36548000  0.56724000  0.67957333  1.0
  O2-  O67  1  0.36548000  0.56724000  0.34624000  1.0
  O2-  O68  1  0.36548000  0.56724000  0.01290667  1.0
  O2-  O69  1  0.99048000  0.56724000  0.62817333  1.0
  O2-  O70  1  0.99048000  0.56724000  0.29484000  1.0
  O2-  O71  1  0.99048000  0.56724000  0.96150667  1.0
  O2-  O72  1  0.21128000  0.56724000  0.41984000  1.0
  O2-  O73  1  0.21068948  0.56545959  0.08531943  1.0
  O2-  O74  1  0.21128000  0.56724000  0.75317333  1.0
  O2-  O75  1  0.57774000  0.24602000  0.67368667  1.0
  O2-  O76  1  0.57774000  0.24602000  0.34035333  1.0
  O2-  O77  1  0.57774000  0.24602000  0.00702000  1.0
  O2-  O78  1  0.43934000  0.24602000  0.55742000  1.0
  O2-  O79  1  0.43934000  0.24602000  0.22408667  1.0
  O2-  O80  1  0.43934000  0.24602000  0.89075333  1.0
  O2-  O81  1  0.23044574  0.24781432  0.60377227  1.0
  O2-  O82  1  0.22894000  0.24602000  0.27022000  1.0
  O2-  O83  1  0.22894000  0.24602000  0.93688667  1.0
  O2-  O84  1  0.72894000  0.74602000  0.72408667  1.0
  O2-  O85  1  0.72894000  0.74602000  0.39075333  1.0
  O2-  O86  1  0.72745034  0.74090927  0.06038434  1.0
  O2-  O87  1  0.93934000  0.74602000  0.50702000  1.0
  O2-  O88  1  0.94081381  0.74480451  0.17305333  1.0
  O2-  O89  1  0.93480116  0.74106063  0.84005910  1.0
  O2-  O90  1  0.08145468  0.74900191  0.43530537  1.0
  O2-  O91  1  0.07774000  0.74602000  0.10355333  1.0
  O2-  O92  1  0.07774000  0.74602000  0.77022000  1.0
  O2-  O93  1  0.42226000  0.75398000  0.49298000  1.0
  O2-  O94  1  0.42226000  0.75398000  0.15964667  1.0
  O2-  O95  1  0.42226000  0.75398000  0.82631333  1.0
  O2-  O96  1  0.56066000  0.75398000  0.60924667  1.0
  O2-  O97  1  0.55963663  0.75398730  0.27272656  1.0
  O2-  O98  1  0.56066000  0.75398000  0.94258000  1.0
  O2-  O99  1  0.77106000  0.75398000  0.56311333  1.0
  O2-  O100  1  0.77106000  0.75398000  0.22978000  1.0
  O2-  O101  1  0.77332432  0.75811411  0.89524268  1.0
  O2-  O102  1  0.27106000  0.25398000  0.44258000  1.0
  O2-  O103  1  0.27106000  0.25398000  0.10924667  1.0
  O2-  O104  1  0.27106000  0.25398000  0.77591333  1.0
  O2-  O105  1  0.06066000  0.25398000  0.65964667  1.0
  O2-  O106  1  0.06066000  0.25398000  0.32631333  1.0
  O2-  O107  1  0.06067811  0.25270141  0.99416948  1.0
  O2-  O108  1  0.92446983  0.25142390  0.73065930  1.0
  O2-  O109  1  0.92792811  0.24794469  0.39711087  1.0
  O2-  O110  1  0.92622255  0.24725999  0.06160442  1.0
