# generated using pymatgen
data_Li3AlGe3(PO4)6
_symmetry_space_group_name_H-M   'P 1'
_cell_length_a   24.84503766
_cell_length_b   8.28167922
_cell_length_c   8.41010855
_cell_angle_alpha   119.49611775
_cell_angle_beta   119.49611775
_cell_angle_gamma   60.00000000
_symmetry_Int_Tables_number   1
_chemical_formula_structural   Li3AlGe3(PO4)6
_chemical_formula_sum   'Li9 Al3 Ge9 P18 O72'
_cell_volume   1232.85125573
_cell_formula_units_Z   3
loop_
 _symmetry_equiv_pos_site_id
 _symmetry_equiv_pos_as_xyz
  1  'x, y, z'
loop_
 _atom_type_symbol
 _atom_type_oxidation_number
  Li+  1.0
  Al3+  3.0
  Ge4+  4.0
  P5+  5.0
  O2-  -2.0
loop_
 _atom_site_type_symbol
 _atom_site_label
 _atom_site_symmetry_multiplicity
 _atom_site_fract_x
 _atom_site_fract_y
 _atom_site_fract_z
 _atom_site_occupancy
  Li+  Li0  1  0.52393333  0.99846667  0.67340000  1.0
  Li+  Li1  1  0.94393333  0.73846667  0.17340000  1.0
  Li+  Li2  1  0.47606667  0.33486667  0.32660000  1.0
  Li+  Li3  1  0.22273333  0.89686667  0.32660000  1.0
  Li+  Li4  1  0.74340000  0.09486667  0.32660000  1.0
  Li+  Li5  1  0.24340000  0.83486667  0.82660000  1.0
  Li+  Li6  1  0.83333333  0.16666667  0.50000000  1.0
  Li+  Li7  1  0.16666667  0.16666667  0.50000000  1.0
  Li+  Li8  1  0.66666667  0.66666667  0.00000000  1.0
  Al3+  Al9  1  0.71390333  0.80837667  0.42513000  1.0
  Al3+  Al10  1  0.78609667  0.02495667  0.07487000  1.0
  Al3+  Al11  1  0.28609667  0.52495667  0.57487000  1.0
  Ge4+  Ge12  1  0.88057000  0.30837667  0.92513000  1.0
  Ge4+  Ge13  1  0.54723667  0.30837667  0.92513000  1.0
  Ge4+  Ge14  1  0.21390333  0.30837667  0.92513000  1.0
  Ge4+  Ge15  1  0.38057000  0.80837667  0.42513000  1.0
  Ge4+  Ge16  1  0.04723667  0.80837667  0.42513000  1.0
  Ge4+  Ge17  1  0.45276333  0.02495667  0.07487000  1.0
  Ge4+  Ge18  1  0.11943000  0.02495667  0.07487000  1.0
  Ge4+  Ge19  1  0.95276333  0.52495667  0.57487000  1.0
  Ge4+  Ge20  1  0.61943000  0.52495667  0.57487000  1.0
  P5+  P21  1  0.67910000  0.41666667  0.25000000  1.0
  P5+  P22  1  0.34576667  0.41666667  0.25000000  1.0
  P5+  P23  1  0.01243333  0.41666667  0.25000000  1.0
  P5+  P24  1  0.91666667  0.12936667  0.25000000  1.0
  P5+  P25  1  0.58333333  0.12936667  0.25000000  1.0
  P5+  P26  1  0.25000000  0.12936667  0.25000000  1.0
  P5+  P27  1  0.82090000  0.70396667  0.25000000  1.0
  P5+  P28  1  0.48756667  0.70396667  0.25000000  1.0
  P5+  P29  1  0.15423333  0.70396667  0.25000000  1.0
  P5+  P30  1  0.75000000  0.20396667  0.75000000  1.0
  P5+  P31  1  0.41666667  0.20396667  0.75000000  1.0
  P5+  P32  1  0.08333333  0.20396667  0.75000000  1.0
  P5+  P33  1  0.84576667  0.62936667  0.75000000  1.0
  P5+  P34  1  0.51243333  0.62936667  0.75000000  1.0
  P5+  P35  1  0.17910000  0.62936667  0.75000000  1.0
  P5+  P36  1  0.98756667  0.91666667  0.75000000  1.0
  P5+  P37  1  0.65423333  0.91666667  0.75000000  1.0
  P5+  P38  1  0.32090000  0.91666667  0.75000000  1.0
  O2-  O39  1  0.95516000  0.37794667  0.06724000  1.0
  O2-  O40  1  0.62182667  0.37794667  0.06724000  1.0
  O2-  O41  1  0.28849333  0.37794667  0.06724000  1.0
  O2-  O42  1  0.90376000  0.15714667  0.06724000  1.0
  O2-  O43  1  0.57042667  0.15714667  0.06724000  1.0
  O2-  O44  1  0.23709333  0.15714667  0.06724000  1.0
  O2-  O45  1  0.83016000  0.53214667  0.06724000  1.0
  O2-  O46  1  0.49682667  0.53214667  0.06724000  1.0
  O2-  O47  1  0.16349333  0.53214667  0.06724000  1.0
  O2-  O48  1  0.73709333  0.03214667  0.56724000  1.0
  O2-  O49  1  0.40376000  0.03214667  0.56724000  1.0
  O2-  O50  1  0.07042667  0.03214667  0.56724000  1.0
  O2-  O51  1  0.78849333  0.65714667  0.56724000  1.0
  O2-  O52  1  0.45516000  0.65714667  0.56724000  1.0
  O2-  O53  1  0.12182667  0.65714667  0.56724000  1.0
  O2-  O54  1  0.99682667  0.87794667  0.56724000  1.0
  O2-  O55  1  0.66349333  0.87794667  0.56724000  1.0
  O2-  O56  1  0.33016000  0.87794667  0.56724000  1.0
  O2-  O57  1  0.71150667  0.95538667  0.93276000  1.0
  O2-  O58  1  0.37817333  0.95538667  0.93276000  1.0
  O2-  O59  1  0.04484000  0.95538667  0.93276000  1.0
  O2-  O60  1  0.76290667  0.17618667  0.93276000  1.0
  O2-  O61  1  0.42957333  0.17618667  0.93276000  1.0
  O2-  O62  1  0.09624000  0.17618667  0.93276000  1.0
  O2-  O63  1  0.83650667  0.80118667  0.93276000  1.0
  O2-  O64  1  0.50317333  0.80118667  0.93276000  1.0
  O2-  O65  1  0.16984000  0.80118667  0.93276000  1.0
  O2-  O66  1  0.92957333  0.30118667  0.43276000  1.0
  O2-  O67  1  0.59624000  0.30118667  0.43276000  1.0
  O2-  O68  1  0.26290667  0.30118667  0.43276000  1.0
  O2-  O69  1  0.87817333  0.67618667  0.43276000  1.0
  O2-  O70  1  0.54484000  0.67618667  0.43276000  1.0
  O2-  O71  1  0.21150667  0.67618667  0.43276000  1.0
  O2-  O72  1  0.66984000  0.45538667  0.43276000  1.0
  O2-  O73  1  0.33650667  0.45538667  0.43276000  1.0
  O2-  O74  1  0.00317333  0.45538667  0.43276000  1.0
  O2-  O75  1  0.92368667  0.08892667  0.75398000  1.0
  O2-  O76  1  0.59035333  0.08892667  0.75398000  1.0
  O2-  O77  1  0.25702000  0.08892667  0.75398000  1.0
  O2-  O78  1  0.80742000  0.22732667  0.75398000  1.0
  O2-  O79  1  0.47408667  0.22732667  0.75398000  1.0
  O2-  O80  1  0.14075333  0.22732667  0.75398000  1.0
  O2-  O81  1  0.85355333  0.43772667  0.75398000  1.0
  O2-  O82  1  0.52022000  0.43772667  0.75398000  1.0
  O2-  O83  1  0.18688667  0.43772667  0.75398000  1.0
  O2-  O84  1  0.97408667  0.93772667  0.25398000  1.0
  O2-  O85  1  0.64075333  0.93772667  0.25398000  1.0
  O2-  O86  1  0.30742000  0.93772667  0.25398000  1.0
  O2-  O87  1  0.75702000  0.72732667  0.25398000  1.0
  O2-  O88  1  0.42368667  0.72732667  0.25398000  1.0
  O2-  O89  1  0.09035333  0.72732667  0.25398000  1.0
  O2-  O90  1  0.68688667  0.58892667  0.25398000  1.0
  O2-  O91  1  0.35355333  0.58892667  0.25398000  1.0
  O2-  O92  1  0.02022000  0.58892667  0.25398000  1.0
  O2-  O93  1  0.74298000  0.24440667  0.24602000  1.0
  O2-  O94  1  0.40964667  0.24440667  0.24602000  1.0
  O2-  O95  1  0.07631333  0.24440667  0.24602000  1.0
  O2-  O96  1  0.85924667  0.10600667  0.24602000  1.0
  O2-  O97  1  0.52591333  0.10600667  0.24602000  1.0
  O2-  O98  1  0.19258000  0.10600667  0.24602000  1.0
  O2-  O99  1  0.81311333  0.89560667  0.24602000  1.0
  O2-  O100  1  0.47978000  0.89560667  0.24602000  1.0
  O2-  O101  1  0.14644667  0.89560667  0.24602000  1.0
  O2-  O102  1  0.69258000  0.39560667  0.74602000  1.0
  O2-  O103  1  0.35924667  0.39560667  0.74602000  1.0
  O2-  O104  1  0.02591333  0.39560667  0.74602000  1.0
  O2-  O105  1  0.90964667  0.60600667  0.74602000  1.0
  O2-  O106  1  0.57631333  0.60600667  0.74602000  1.0
  O2-  O107  1  0.24298000  0.60600667  0.74602000  1.0
  O2-  O108  1  0.97978000  0.74440667  0.74602000  1.0
  O2-  O109  1  0.64644667  0.74440667  0.74602000  1.0
  O2-  O110  1  0.31311333  0.74440667  0.74602000  1.0
