# generated using pymatgen
data_Li3AlGe3(PO4)6
_symmetry_space_group_name_H-M   'P 1'
_cell_length_a   8.25260000
_cell_length_b   24.75780000
_cell_length_c   8.38057838
_cell_angle_alpha   60.50388225
_cell_angle_beta   60.50388225
_cell_angle_gamma   60.00000000
_symmetry_Int_Tables_number   1
_chemical_formula_structural   Li3AlGe3(PO4)6
_chemical_formula_sum   'Li9 Al3 Ge9 P18 O72'
_cell_volume   1219.91017740
_cell_formula_units_Z   3
loop_
 _symmetry_equiv_pos_site_id
 _symmetry_equiv_pos_as_xyz
  1  'x, y, z'
loop_
 _atom_type_symbol
 _atom_type_oxidation_number
  Li+  1.0
  Al3+  3.0
  Ge4+  4.0
  P5+  5.0
  O2-  -2.0
loop_
 _atom_site_type_symbol
 _atom_site_label
 _atom_site_symmetry_multiplicity
 _atom_site_fract_x
 _atom_site_fract_y
 _atom_site_fract_z
 _atom_site_occupancy
  Li+  Li0  1  0.66820000  0.47606667  0.67340000  1.0
  Li+  Li1  1  0.92820000  0.05606667  0.17340000  1.0
  Li+  Li2  1  0.33180000  0.52393333  0.32660000  1.0
  Li+  Li3  1  0.76980000  0.77726667  0.32660000  1.0
  Li+  Li4  1  0.57180000  0.25660000  0.32660000  1.0
  Li+  Li5  1  0.83180000  0.75660000  0.82660000  1.0
  Li+  Li6  1  0.50000000  0.16666667  0.50000000  1.0
  Li+  Li7  1  0.50000000  0.83333333  0.50000000  1.0
  Li+  Li8  1  0.00000000  0.33333333  0.00000000  1.0
  Al3+  Al9  1  0.85829000  0.28609667  0.42513000  1.0
  Al3+  Al10  1  0.64171000  0.21390333  0.07487000  1.0
  Al3+  Al11  1  0.14171000  0.71390333  0.57487000  1.0
  Ge4+  Ge12  1  0.35829000  0.11943000  0.92513000  1.0
  Ge4+  Ge13  1  0.35829000  0.45276333  0.92513000  1.0
  Ge4+  Ge14  1  0.35829000  0.78609667  0.92513000  1.0
  Ge4+  Ge15  1  0.85829000  0.61943000  0.42513000  1.0
  Ge4+  Ge16  1  0.85829000  0.95276333  0.42513000  1.0
  Ge4+  Ge17  1  0.64171000  0.54723667  0.07487000  1.0
  Ge4+  Ge18  1  0.64171000  0.88057000  0.07487000  1.0
  Ge4+  Ge19  1  0.14171000  0.04723667  0.57487000  1.0
  Ge4+  Ge20  1  0.14171000  0.38057000  0.57487000  1.0
  P5+  P1  1  0.25000000  0.32090000  0.25000000  1.0
  P5+  P1  1  0.25000000  0.65423333  0.25000000  1.0
  P5+  P1  1  0.25000000  0.98756667  0.25000000  1.0
  P5+  P1  1  0.53730000  0.08333333  0.25000000  1.0
  P5+  P1  1  0.53730000  0.41666667  0.25000000  1.0
  P5+  P1  1  0.53730000  0.75000000  0.25000000  1.0
  P5+  P1  1  0.96270000  0.17910000  0.25000000  1.0
  P5+  P1  1  0.96270000  0.51243333  0.25000000  1.0
  P5+  P1  1  0.96270000  0.84576667  0.25000000  1.0
  P5+  P1  1  0.46270000  0.25000000  0.75000000  1.0
  P5+  P1  1  0.46270000  0.58333333  0.75000000  1.0
  P5+  P1  1  0.46270000  0.91666667  0.75000000  1.0
  P5+  P1  1  0.03730000  0.15423333  0.75000000  1.0
  P5+  P1  1  0.03730000  0.48756667  0.75000000  1.0
  P5+  P1  1  0.03730000  0.82090000  0.75000000  1.0
  P5+  P1  1  0.75000000  0.01243333  0.75000000  1.0
  P5+  P1  1  0.75000000  0.34576667  0.75000000  1.0
  P5+  P1  1  0.75000000  0.67910000  0.75000000  1.0
  O2-  O1  1  0.28872000  0.04484000  0.06724000  1.0
  O2-  O1  1  0.28872000  0.37817333  0.06724000  1.0
  O2-  O1  1  0.28872000  0.71150667  0.06724000  1.0
  O2-  O1  1  0.50952000  0.09624000  0.06724000  1.0
  O2-  O1  1  0.50952000  0.42957333  0.06724000  1.0
  O2-  O1  1  0.50952000  0.76290667  0.06724000  1.0
  O2-  O1  1  0.13452000  0.16984000  0.06724000  1.0
  O2-  O1  1  0.13452000  0.50317333  0.06724000  1.0
  O2-  O1  1  0.13452000  0.83650667  0.06724000  1.0
  O2-  O1  1  0.63452000  0.26290667  0.56724000  1.0
  O2-  O1  1  0.63452000  0.59624000  0.56724000  1.0
  O2-  O1  1  0.63452000  0.92957333  0.56724000  1.0
  O2-  O1  1  0.00952000  0.21150667  0.56724000  1.0
  O2-  O1  1  0.00952000  0.54484000  0.56724000  1.0
  O2-  O1  1  0.00952000  0.87817333  0.56724000  1.0
  O2-  O1  1  0.78872000  0.00317333  0.56724000  1.0
  O2-  O1  1  0.78872000  0.33650667  0.56724000  1.0
  O2-  O1  1  0.78872000  0.66984000  0.56724000  1.0
  O2-  O1  1  0.71128000  0.28849333  0.93276000  1.0
  O2-  O1  1  0.71128000  0.62182667  0.93276000  1.0
  O2-  O1  1  0.71128000  0.95516000  0.93276000  1.0
  O2-  O1  1  0.49048000  0.23709333  0.93276000  1.0
  O2-  O1  1  0.49048000  0.57042667  0.93276000  1.0
  O2-  O1  1  0.49048000  0.90376000  0.93276000  1.0
  O2-  O1  1  0.86548000  0.16349333  0.93276000  1.0
  O2-  O1  1  0.86548000  0.49682667  0.93276000  1.0
  O2-  O1  1  0.86548000  0.83016000  0.93276000  1.0
  O2-  O1  1  0.36548000  0.07042667  0.43276000  1.0
  O2-  O1  1  0.36548000  0.40376000  0.43276000  1.0
  O2-  O1  1  0.36548000  0.73709333  0.43276000  1.0
  O2-  O1  1  0.99048000  0.12182667  0.43276000  1.0
  O2-  O1  1  0.99048000  0.45516000  0.43276000  1.0
  O2-  O1  1  0.99048000  0.78849333  0.43276000  1.0
  O2-  O1  1  0.21128000  0.33016000  0.43276000  1.0
  O2-  O1  1  0.21128000  0.66349333  0.43276000  1.0
  O2-  O1  1  0.21128000  0.99682667  0.43276000  1.0
  O2-  O2  1  0.57774000  0.07631333  0.75398000  1.0
  O2-  O2  1  0.57774000  0.40964667  0.75398000  1.0
  O2-  O2  1  0.57774000  0.74298000  0.75398000  1.0
  O2-  O2  1  0.43934000  0.19258000  0.75398000  1.0
  O2-  O2  1  0.43934000  0.52591333  0.75398000  1.0
  O2-  O2  1  0.43934000  0.85924667  0.75398000  1.0
  O2-  O2  1  0.22894000  0.14644667  0.75398000  1.0
  O2-  O2  1  0.22894000  0.47978000  0.75398000  1.0
  O2-  O2  1  0.22894000  0.81311333  0.75398000  1.0
  O2-  O2  1  0.72894000  0.02591333  0.25398000  1.0
  O2-  O2  1  0.72894000  0.35924667  0.25398000  1.0
  O2-  O2  1  0.72894000  0.69258000  0.25398000  1.0
  O2-  O2  1  0.93934000  0.24298000  0.25398000  1.0
  O2-  O2  1  0.93934000  0.57631333  0.25398000  1.0
  O2-  O2  1  0.93934000  0.90964667  0.25398000  1.0
  O2-  O2  1  0.07774000  0.31311333  0.25398000  1.0
  O2-  O2  1  0.07774000  0.64644667  0.25398000  1.0
  O2-  O2  1  0.07774000  0.97978000  0.25398000  1.0
  O2-  O2  1  0.42226000  0.25702000  0.24602000  1.0
  O2-  O2  1  0.42226000  0.59035333  0.24602000  1.0
  O2-  O2  1  0.42226000  0.92368667  0.24602000  1.0
  O2-  O2  1  0.56066000  0.14075333  0.24602000  1.0
  O2-  O2  1  0.56066000  0.47408667  0.24602000  1.0
  O2-  O2  1  0.56066000  0.80742000  0.24602000  1.0
  O2-  O2  1  0.77106000  0.18688667  0.24602000  1.0
  O2-  O2  1  0.77106000  0.52022000  0.24602000  1.0
  O2-  O2  1  0.77106000  0.85355333  0.24602000  1.0
  O2-  O2  1  0.27106000  0.30742000  0.74602000  1.0
  O2-  O2  1  0.27106000  0.64075333  0.74602000  1.0
  O2-  O2  1  0.27106000  0.97408667  0.74602000  1.0
  O2-  O2  1  0.06066000  0.09035333  0.74602000  1.0
  O2-  O2  1  0.06066000  0.42368667  0.74602000  1.0
  O2-  O2  1  0.06066000  0.75702000  0.74602000  1.0
  O2-  O2  1  0.92226000  0.02022000  0.74602000  1.0
  O2-  O2  1  0.92226000  0.35355333  0.74602000  1.0
  O2-  O2  1  0.92226000  0.68688667  0.74602000  1.0
