# generated using pymatgen
data_LiLaTiO4
_symmetry_space_group_name_H-M   'P 1'
_cell_length_a   7.61213604
_cell_length_b   22.83640811
_cell_length_c   12.19153247
_cell_angle_alpha   90.00000000
_cell_angle_beta   90.00000000
_cell_angle_gamma   90.00000000
_symmetry_Int_Tables_number   1
_chemical_formula_structural   LiLaTiO4
_chemical_formula_sum   'Li24 La24 Ti24 O96'
_cell_volume   2119.30096812
_cell_formula_units_Z   24
loop_
 _symmetry_equiv_pos_site_id
 _symmetry_equiv_pos_as_xyz
  1  'x, y, z'
loop_
 _atom_type_symbol
 _atom_type_oxidation_number
  Li+  1.0
  La3+  3.0
  Ti4+  4.0
  O2-  -2.0
loop_
 _atom_site_type_symbol
 _atom_site_label
 _atom_site_symmetry_multiplicity
 _atom_site_fract_x
 _atom_site_fract_y
 _atom_site_fract_z
 _atom_site_occupancy
  Li+  Li0  1  0.62500000  0.62500000  0.50000000  1.0
  Li+  Li1  1  0.62500000  0.29166667  0.50000000  1.0
  Li+  Li2  1  0.62500000  0.95833333  0.50000000  1.0
  Li+  Li3  1  0.12500000  0.62500000  0.50000000  1.0
  Li+  Li4  1  0.12500000  0.29166667  0.50000000  1.0
  Li+  Li5  1  0.12500000  0.95833333  0.50000000  1.0
  Li+  Li6  1  0.62500000  0.45833333  0.50000000  1.0
  Li+  Li7  1  0.62500000  0.12500000  0.50000000  1.0
  Li+  Li8  1  0.62500000  0.79166667  0.50000000  1.0
  Li+  Li9  1  0.12500000  0.45833333  0.50000000  1.0
  Li+  Li10  1  0.12500000  0.12500000  0.50000000  1.0
  Li+  Li11  1  0.12500000  0.79166667  0.50000000  1.0
  Li+  Li12  1  0.87500000  0.54166667  0.50000000  1.0
  Li+  Li13  1  0.87500000  0.20833333  0.50000000  1.0
  Li+  Li14  1  0.87500000  0.87500000  0.50000000  1.0
  Li+  Li15  1  0.37500000  0.54166667  0.50000000  1.0
  Li+  Li16  1  0.37500000  0.20833333  0.50000000  1.0
  Li+  Li17  1  0.37500000  0.87500000  0.50000000  1.0
  Li+  Li18  1  0.87500000  0.37500000  0.50000000  1.0
  Li+  Li19  1  0.87500000  0.04166667  0.50000000  1.0
  Li+  Li20  1  0.87500000  0.70833333  0.50000000  1.0
  Li+  Li21  1  0.37500000  0.37500000  0.50000000  1.0
  Li+  Li22  1  0.37500000  0.04166667  0.50000000  1.0
  Li+  Li23  1  0.37500000  0.70833333  0.50000000  1.0
  La3+  La24  1  0.62500000  0.54166667  0.12000000  1.0
  La3+  La25  1  0.62500000  0.20833333  0.12000000  1.0
  La3+  La26  1  0.62500000  0.87500000  0.12000000  1.0
  La3+  La27  1  0.12500000  0.54166667  0.12000000  1.0
  La3+  La28  1  0.12500000  0.20833333  0.12000000  1.0
  La3+  La29  1  0.12500000  0.87500000  0.12000000  1.0
  La3+  La30  1  0.62500000  0.37500000  0.12000000  1.0
  La3+  La31  1  0.62500000  0.04166667  0.12000000  1.0
  La3+  La32  1  0.62500000  0.70833333  0.12000000  1.0
  La3+  La33  1  0.12500000  0.37500000  0.12000000  1.0
  La3+  La34  1  0.12500000  0.04166667  0.12000000  1.0
  La3+  La35  1  0.12500000  0.70833333  0.12000000  1.0
  La3+  La36  1  0.87500000  0.62500000  0.88000000  1.0
  La3+  La37  1  0.87500000  0.29166667  0.88000000  1.0
  La3+  La38  1  0.87500000  0.95833333  0.88000000  1.0
  La3+  La39  1  0.37500000  0.62500000  0.88000000  1.0
  La3+  La40  1  0.37500000  0.29166667  0.88000000  1.0
  La3+  La41  1  0.37500000  0.95833333  0.88000000  1.0
  La3+  La42  1  0.87500000  0.45833333  0.88000000  1.0
  La3+  La43  1  0.87500000  0.12500000  0.88000000  1.0
  La3+  La44  1  0.87500000  0.79166667  0.88000000  1.0
  La3+  La45  1  0.37500000  0.45833333  0.88000000  1.0
  La3+  La46  1  0.37500000  0.12500000  0.88000000  1.0
  La3+  La47  1  0.37500000  0.79166667  0.88000000  1.0
  Ti4+  Ti48  1  0.62500000  0.54166667  0.70500000  1.0
  Ti4+  Ti49  1  0.62500000  0.20833333  0.70500000  1.0
  Ti4+  Ti50  1  0.62500000  0.87500000  0.70500000  1.0
  Ti4+  Ti51  1  0.12500000  0.54166667  0.70500000  1.0
  Ti4+  Ti52  1  0.12500000  0.20833333  0.70500000  1.0
  Ti4+  Ti53  1  0.12500000  0.87500000  0.70500000  1.0
  Ti4+  Ti54  1  0.62500000  0.37500000  0.70500000  1.0
  Ti4+  Ti55  1  0.62500000  0.04166667  0.70500000  1.0
  Ti4+  Ti56  1  0.62500000  0.70833333  0.70500000  1.0
  Ti4+  Ti57  1  0.12500000  0.37500000  0.70500000  1.0
  Ti4+  Ti58  1  0.12500000  0.04166667  0.70500000  1.0
  Ti4+  Ti59  1  0.12500000  0.70833333  0.70500000  1.0
  Ti4+  Ti60  1  0.87500000  0.62500000  0.29500000  1.0
  Ti4+  Ti61  1  0.87500000  0.29166667  0.29500000  1.0
  Ti4+  Ti62  1  0.87500000  0.95833333  0.29500000  1.0
  Ti4+  Ti63  1  0.37500000  0.62500000  0.29500000  1.0
  Ti4+  Ti64  1  0.37500000  0.29166667  0.29500000  1.0
  Ti4+  Ti65  1  0.37500000  0.95833333  0.29500000  1.0
  Ti4+  Ti66  1  0.87500000  0.45833333  0.29500000  1.0
  Ti4+  Ti67  1  0.87500000  0.12500000  0.29500000  1.0
  Ti4+  Ti68  1  0.87500000  0.79166667  0.29500000  1.0
  Ti4+  Ti69  1  0.37500000  0.45833333  0.29500000  1.0
  Ti4+  Ti70  1  0.37500000  0.12500000  0.29500000  1.0
  Ti4+  Ti71  1  0.37500000  0.79166667  0.29500000  1.0
  O2-  O72  1  0.87500000  0.54166667  0.25980000  1.0
  O2-  O73  1  0.87500000  0.20833333  0.25980000  1.0
  O2-  O74  1  0.87500000  0.87500000  0.25980000  1.0
  O2-  O75  1  0.37500000  0.54166667  0.25980000  1.0
  O2-  O76  1  0.37500000  0.20833333  0.25980000  1.0
  O2-  O77  1  0.37500000  0.87500000  0.25980000  1.0
  O2-  O78  1  0.87500000  0.37500000  0.25980000  1.0
  O2-  O79  1  0.87500000  0.04166667  0.25980000  1.0
  O2-  O80  1  0.87500000  0.70833333  0.25980000  1.0
  O2-  O81  1  0.37500000  0.37500000  0.25980000  1.0
  O2-  O82  1  0.37500000  0.04166667  0.25980000  1.0
  O2-  O83  1  0.37500000  0.70833333  0.25980000  1.0
  O2-  O84  1  0.62500000  0.62500000  0.25980000  1.0
  O2-  O85  1  0.62500000  0.29166667  0.25980000  1.0
  O2-  O86  1  0.62500000  0.95833333  0.25980000  1.0
  O2-  O87  1  0.12500000  0.62500000  0.25980000  1.0
  O2-  O88  1  0.12500000  0.29166667  0.25980000  1.0
  O2-  O89  1  0.12500000  0.95833333  0.25980000  1.0
  O2-  O90  1  0.62500000  0.45833333  0.25980000  1.0
  O2-  O91  1  0.62500000  0.12500000  0.25980000  1.0
  O2-  O92  1  0.62500000  0.79166667  0.25980000  1.0
  O2-  O93  1  0.12500000  0.45833333  0.25980000  1.0
  O2-  O94  1  0.12500000  0.12500000  0.25980000  1.0
  O2-  O95  1  0.12500000  0.79166667  0.25980000  1.0
  O2-  O96  1  0.62500000  0.62500000  0.74020000  1.0
  O2-  O97  1  0.62500000  0.29166667  0.74020000  1.0
  O2-  O98  1  0.62500000  0.95833333  0.74020000  1.0
  O2-  O99  1  0.12500000  0.62500000  0.74020000  1.0
  O2-  O100  1  0.12500000  0.29166667  0.74020000  1.0
  O2-  O101  1  0.12500000  0.95833333  0.74020000  1.0
  O2-  O102  1  0.62500000  0.45833333  0.74020000  1.0
  O2-  O103  1  0.62500000  0.12500000  0.74020000  1.0
  O2-  O104  1  0.62500000  0.79166667  0.74020000  1.0
  O2-  O105  1  0.12500000  0.45833333  0.74020000  1.0
  O2-  O106  1  0.12500000  0.12500000  0.74020000  1.0
  O2-  O107  1  0.12500000  0.79166667  0.74020000  1.0
  O2-  O108  1  0.87500000  0.54166667  0.74020000  1.0
  O2-  O109  1  0.87500000  0.20833333  0.74020000  1.0
  O2-  O110  1  0.87500000  0.87500000  0.74020000  1.0
  O2-  O111  1  0.37500000  0.54166667  0.74020000  1.0
  O2-  O112  1  0.37500000  0.20833333  0.74020000  1.0
  O2-  O113  1  0.37500000  0.87500000  0.74020000  1.0
  O2-  O114  1  0.87500000  0.37500000  0.74020000  1.0
  O2-  O115  1  0.87500000  0.04166667  0.74020000  1.0
  O2-  O116  1  0.87500000  0.70833333  0.74020000  1.0
  O2-  O117  1  0.37500000  0.37500000  0.74020000  1.0
  O2-  O118  1  0.37500000  0.04166667  0.74020000  1.0
  O2-  O119  1  0.37500000  0.70833333  0.74020000  1.0
  O2-  O120  1  0.62500000  0.54166667  0.56570000  1.0
  O2-  O121  1  0.62500000  0.20833333  0.56570000  1.0
  O2-  O122  1  0.62500000  0.87500000  0.56570000  1.0
  O2-  O123  1  0.12500000  0.54166667  0.56570000  1.0
  O2-  O124  1  0.12500000  0.20833333  0.56570000  1.0
  O2-  O125  1  0.12500000  0.87500000  0.56570000  1.0
  O2-  O126  1  0.62500000  0.37500000  0.56570000  1.0
  O2-  O127  1  0.62500000  0.04166667  0.56570000  1.0
  O2-  O128  1  0.62500000  0.70833333  0.56570000  1.0
  O2-  O129  1  0.12500000  0.37500000  0.56570000  1.0
  O2-  O130  1  0.12500000  0.04166667  0.56570000  1.0
  O2-  O131  1  0.12500000  0.70833333  0.56570000  1.0
  O2-  O132  1  0.87500000  0.62500000  0.43430000  1.0
  O2-  O133  1  0.87500000  0.29166667  0.43430000  1.0
  O2-  O134  1  0.87500000  0.95833333  0.43430000  1.0
  O2-  O135  1  0.37500000  0.62500000  0.43430000  1.0
  O2-  O136  1  0.37500000  0.29166667  0.43430000  1.0
  O2-  O137  1  0.37500000  0.95833333  0.43430000  1.0
  O2-  O138  1  0.87500000  0.45833333  0.43430000  1.0
  O2-  O139  1  0.87500000  0.12500000  0.43430000  1.0
  O2-  O140  1  0.87500000  0.79166667  0.43430000  1.0
  O2-  O141  1  0.37500000  0.45833333  0.43430000  1.0
  O2-  O142  1  0.37500000  0.12500000  0.43430000  1.0
  O2-  O143  1  0.37500000  0.79166667  0.43430000  1.0
  O2-  O144  1  0.62500000  0.54166667  0.92550000  1.0
  O2-  O145  1  0.62500000  0.20833333  0.92550000  1.0
  O2-  O146  1  0.62500000  0.87500000  0.92550000  1.0
  O2-  O147  1  0.12500000  0.54166667  0.92550000  1.0
  O2-  O148  1  0.12500000  0.20833333  0.92550000  1.0
  O2-  O149  1  0.12500000  0.87500000  0.92550000  1.0
  O2-  O150  1  0.62500000  0.37500000  0.92550000  1.0
  O2-  O151  1  0.62500000  0.04166667  0.92550000  1.0
  O2-  O152  1  0.62500000  0.70833333  0.92550000  1.0
  O2-  O153  1  0.12500000  0.37500000  0.92550000  1.0
  O2-  O154  1  0.12500000  0.04166667  0.92550000  1.0
  O2-  O155  1  0.12500000  0.70833333  0.92550000  1.0
  O2-  O156  1  0.87500000  0.62500000  0.07450000  1.0
  O2-  O157  1  0.87500000  0.29166667  0.07450000  1.0
  O2-  O158  1  0.87500000  0.95833333  0.07450000  1.0
  O2-  O159  1  0.37500000  0.62500000  0.07450000  1.0
  O2-  O160  1  0.37500000  0.29166667  0.07450000  1.0
  O2-  O161  1  0.37500000  0.95833333  0.07450000  1.0
  O2-  O162  1  0.87500000  0.45833333  0.07450000  1.0
  O2-  O163  1  0.87500000  0.12500000  0.07450000  1.0
  O2-  O164  1  0.87500000  0.79166667  0.07450000  1.0
  O2-  O165  1  0.37500000  0.45833333  0.07450000  1.0
  O2-  O166  1  0.37500000  0.12500000  0.07450000  1.0
  O2-  O167  1  0.37500000  0.79166667  0.07450000  1.0
