# generated using pymatgen
data_LiLa9(Si3O13)2
_symmetry_space_group_name_H-M   'P 1'
_cell_length_a   14.30460000
_cell_length_b   19.36700000
_cell_length_c   9.68350000
_cell_angle_alpha   120.00000000
_cell_angle_beta   90.00000000
_cell_angle_gamma   90.00000000
_symmetry_Int_Tables_number   1
_chemical_formula_structural   LiLa9(Si3O13)2
_chemical_formula_sum   'Li4 La36 Si24 O104'
_cell_volume   2323.27735440
_cell_formula_units_Z   4
loop_
 _symmetry_equiv_pos_site_id
 _symmetry_equiv_pos_as_xyz
  1  'x, y, z'
loop_
 _atom_type_symbol
 _atom_type_oxidation_number
  Li+  1.0
  La3+  3.0
  Si4+  4.0
  O2-  -2.0
loop_
 _atom_site_type_symbol
 _atom_site_label
 _atom_site_symmetry_multiplicity
 _atom_site_fract_x
 _atom_site_fract_y
 _atom_site_fract_z
 _atom_site_occupancy
  Li+  Li0  1  0.49830000  0.16666667  0.66666667  1.0
  Li+  Li0  1  0.49830000  0.66666667  0.66666667  1.0
  Li+  Li1  1  0.00170000  0.33333333  0.33333333  1.0
  Li+  Li1  1  0.00170000  0.83333333  0.33333333  1.0
  La3+  La2  1  0.24830000  0.33333333  0.33333333  1.0
  La3+  La2  1  0.24830000  0.83333333  0.33333333  1.0
  La3+  La3  1  0.74830000  0.33333333  0.33333333  1.0
  La3+  La3  1  0.74830000  0.83333333  0.33333333  1.0
  La3+  La4  1  0.99830000  0.16666667  0.66666667  1.0
  La3+  La4  1  0.99830000  0.66666667  0.66666667  1.0
  La3+  La5  1  0.25170000  0.16666667  0.66666667  1.0
  La3+  La5  1  0.25170000  0.66666667  0.66666667  1.0
  La3+  La6  1  0.75170000  0.16666667  0.66666667  1.0
  La3+  La6  1  0.75170000  0.66666667  0.66666667  1.0
  La3+  La7  1  0.50170000  0.33333333  0.33333333  1.0
  La3+  La7  1  0.50170000  0.83333333  0.33333333  1.0
  La3+  La2  1  0.37500000  0.38425000  0.75380000  1.0
  La3+  La2  1  0.37500000  0.88425000  0.75380000  1.0
  La3+  La2  1  0.87500000  0.38425000  0.75380000  1.0
  La3+  La2  1  0.87500000  0.88425000  0.75380000  1.0
  La3+  La2  1  0.37500000  0.12310000  0.01470000  1.0
  La3+  La2  1  0.37500000  0.62310000  0.01470000  1.0
  La3+  La2  1  0.87500000  0.12310000  0.01470000  1.0
  La3+  La2  1  0.87500000  0.62310000  0.01470000  1.0
  La3+  La2  1  0.37500000  0.49265000  0.23150000  1.0
  La3+  La2  1  0.37500000  0.99265000  0.23150000  1.0
  La3+  La2  1  0.87500000  0.49265000  0.23150000  1.0
  La3+  La2  1  0.87500000  0.99265000  0.23150000  1.0
  La3+  La2  1  0.12500000  0.11575000  0.24620000  1.0
  La3+  La2  1  0.12500000  0.61575000  0.24620000  1.0
  La3+  La2  1  0.62500000  0.11575000  0.24620000  1.0
  La3+  La2  1  0.62500000  0.61575000  0.24620000  1.0
  La3+  La2  1  0.12500000  0.37690000  0.98530000  1.0
  La3+  La2  1  0.12500000  0.87690000  0.98530000  1.0
  La3+  La2  1  0.62500000  0.37690000  0.98530000  1.0
  La3+  La2  1  0.62500000  0.87690000  0.98530000  1.0
  La3+  La2  1  0.12500000  0.00735000  0.76850000  1.0
  La3+  La2  1  0.12500000  0.50735000  0.76850000  1.0
  La3+  La2  1  0.62500000  0.00735000  0.76850000  1.0
  La3+  La2  1  0.62500000  0.50735000  0.76850000  1.0
  Si4+  Si1  1  0.37500000  0.01630000  0.62650000  1.0
  Si4+  Si1  1  0.37500000  0.51630000  0.62650000  1.0
  Si4+  Si1  1  0.87500000  0.01630000  0.62650000  1.0
  Si4+  Si1  1  0.87500000  0.51630000  0.62650000  1.0
  Si4+  Si1  1  0.37500000  0.18675000  0.40610000  1.0
  Si4+  Si1  1  0.37500000  0.68675000  0.40610000  1.0
  Si4+  Si1  1  0.87500000  0.18675000  0.40610000  1.0
  Si4+  Si1  1  0.87500000  0.68675000  0.40610000  1.0
  Si4+  Si1  1  0.37500000  0.29695000  0.96740000  1.0
  Si4+  Si1  1  0.37500000  0.79695000  0.96740000  1.0
  Si4+  Si1  1  0.87500000  0.29695000  0.96740000  1.0
  Si4+  Si1  1  0.87500000  0.79695000  0.96740000  1.0
  Si4+  Si1  1  0.12500000  0.48370000  0.37350000  1.0
  Si4+  Si1  1  0.12500000  0.98370000  0.37350000  1.0
  Si4+  Si1  1  0.62500000  0.48370000  0.37350000  1.0
  Si4+  Si1  1  0.62500000  0.98370000  0.37350000  1.0
  Si4+  Si1  1  0.12500000  0.31325000  0.59390000  1.0
  Si4+  Si1  1  0.12500000  0.81325000  0.59390000  1.0
  Si4+  Si1  1  0.62500000  0.31325000  0.59390000  1.0
  Si4+  Si1  1  0.62500000  0.81325000  0.59390000  1.0
  Si4+  Si1  1  0.12500000  0.20305000  0.03260000  1.0
  Si4+  Si1  1  0.12500000  0.70305000  0.03260000  1.0
  Si4+  Si1  1  0.62500000  0.20305000  0.03260000  1.0
  Si4+  Si1  1  0.62500000  0.70305000  0.03260000  1.0
  O2-  O1  1  0.37500000  0.42100000  0.50800000  1.0
  O2-  O1  1  0.37500000  0.92100000  0.50800000  1.0
  O2-  O1  1  0.87500000  0.42100000  0.50800000  1.0
  O2-  O1  1  0.87500000  0.92100000  0.50800000  1.0
  O2-  O1  1  0.37500000  0.24600000  0.33400000  1.0
  O2-  O1  1  0.37500000  0.74600000  0.33400000  1.0
  O2-  O1  1  0.87500000  0.24600000  0.33400000  1.0
  O2-  O1  1  0.87500000  0.74600000  0.33400000  1.0
  O2-  O1  1  0.37500000  0.33300000  0.15800000  1.0
  O2-  O1  1  0.37500000  0.83300000  0.15800000  1.0
  O2-  O1  1  0.87500000  0.33300000  0.15800000  1.0
  O2-  O1  1  0.87500000  0.83300000  0.15800000  1.0
  O2-  O1  1  0.12500000  0.07900000  0.49200000  1.0
  O2-  O1  1  0.12500000  0.57900000  0.49200000  1.0
  O2-  O1  1  0.62500000  0.07900000  0.49200000  1.0
  O2-  O1  1  0.62500000  0.57900000  0.49200000  1.0
  O2-  O1  1  0.12500000  0.25400000  0.66600000  1.0
  O2-  O1  1  0.12500000  0.75400000  0.66600000  1.0
  O2-  O1  1  0.62500000  0.25400000  0.66600000  1.0
  O2-  O1  1  0.62500000  0.75400000  0.66600000  1.0
  O2-  O1  1  0.12500000  0.16700000  0.84200000  1.0
  O2-  O1  1  0.12500000  0.66700000  0.84200000  1.0
  O2-  O1  1  0.62500000  0.16700000  0.84200000  1.0
  O2-  O1  1  0.62500000  0.66700000  0.84200000  1.0
  O2-  O2  1  0.37500000  0.06400000  0.52700000  1.0
  O2-  O2  1  0.37500000  0.56400000  0.52700000  1.0
  O2-  O2  1  0.87500000  0.06400000  0.52700000  1.0
  O2-  O2  1  0.87500000  0.56400000  0.52700000  1.0
  O2-  O2  1  0.37500000  0.23650000  0.60100000  1.0
  O2-  O2  1  0.37500000  0.73650000  0.60100000  1.0
  O2-  O2  1  0.87500000  0.23650000  0.60100000  1.0
  O2-  O2  1  0.87500000  0.73650000  0.60100000  1.0
  O2-  O2  1  0.37500000  0.19950000  0.87200000  1.0
  O2-  O2  1  0.37500000  0.69950000  0.87200000  1.0
  O2-  O2  1  0.87500000  0.19950000  0.87200000  1.0
  O2-  O2  1  0.87500000  0.69950000  0.87200000  1.0
  O2-  O2  1  0.12500000  0.43600000  0.47300000  1.0
  O2-  O2  1  0.12500000  0.93600000  0.47300000  1.0
  O2-  O2  1  0.62500000  0.43600000  0.47300000  1.0
  O2-  O2  1  0.62500000  0.93600000  0.47300000  1.0
  O2-  O2  1  0.12500000  0.26350000  0.39900000  1.0
  O2-  O2  1  0.12500000  0.76350000  0.39900000  1.0
  O2-  O2  1  0.62500000  0.26350000  0.39900000  1.0
  O2-  O2  1  0.62500000  0.76350000  0.39900000  1.0
  O2-  O2  1  0.12500000  0.30050000  0.12800000  1.0
  O2-  O2  1  0.12500000  0.80050000  0.12800000  1.0
  O2-  O2  1  0.62500000  0.30050000  0.12800000  1.0
  O2-  O2  1  0.62500000  0.80050000  0.12800000  1.0
  O2-  O3  1  0.28540000  0.04450000  0.74680000  1.0
  O2-  O3  1  0.28540000  0.54450000  0.74680000  1.0
  O2-  O3  1  0.78540000  0.04450000  0.74680000  1.0
  O2-  O3  1  0.78540000  0.54450000  0.74680000  1.0
  O2-  O3  1  0.28540000  0.12660000  0.34220000  1.0
  O2-  O3  1  0.28540000  0.62660000  0.34220000  1.0
  O2-  O3  1  0.78540000  0.12660000  0.34220000  1.0
  O2-  O3  1  0.78540000  0.62660000  0.34220000  1.0
  O2-  O3  1  0.28540000  0.32890000  0.91100000  1.0
  O2-  O3  1  0.28540000  0.82890000  0.91100000  1.0
  O2-  O3  1  0.78540000  0.32890000  0.91100000  1.0
  O2-  O3  1  0.78540000  0.82890000  0.91100000  1.0
  O2-  O3  1  0.03540000  0.45550000  0.25320000  1.0
  O2-  O3  1  0.03540000  0.95550000  0.25320000  1.0
  O2-  O3  1  0.53540000  0.45550000  0.25320000  1.0
  O2-  O3  1  0.53540000  0.95550000  0.25320000  1.0
  O2-  O3  1  0.03540000  0.37340000  0.65780000  1.0
  O2-  O3  1  0.03540000  0.87340000  0.65780000  1.0
  O2-  O3  1  0.53540000  0.37340000  0.65780000  1.0
  O2-  O3  1  0.53540000  0.87340000  0.65780000  1.0
  O2-  O3  1  0.03540000  0.17110000  0.08900000  1.0
  O2-  O3  1  0.03540000  0.67110000  0.08900000  1.0
  O2-  O3  1  0.53540000  0.17110000  0.08900000  1.0
  O2-  O3  1  0.53540000  0.67110000  0.08900000  1.0
  O2-  O3  1  0.21460000  0.45550000  0.25320000  1.0
  O2-  O3  1  0.21460000  0.95550000  0.25320000  1.0
  O2-  O3  1  0.71460000  0.45550000  0.25320000  1.0
  O2-  O3  1  0.71460000  0.95550000  0.25320000  1.0
  O2-  O3  1  0.21460000  0.37340000  0.65780000  1.0
  O2-  O3  1  0.21460000  0.87340000  0.65780000  1.0
  O2-  O3  1  0.71460000  0.37340000  0.65780000  1.0
  O2-  O3  1  0.71460000  0.87340000  0.65780000  1.0
  O2-  O3  1  0.21460000  0.17110000  0.08900000  1.0
  O2-  O3  1  0.21460000  0.67110000  0.08900000  1.0
  O2-  O3  1  0.71460000  0.17110000  0.08900000  1.0
  O2-  O3  1  0.71460000  0.67110000  0.08900000  1.0
  O2-  O3  1  0.46460000  0.04450000  0.74680000  1.0
  O2-  O3  1  0.46460000  0.54450000  0.74680000  1.0
  O2-  O3  1  0.96460000  0.04450000  0.74680000  1.0
  O2-  O3  1  0.96460000  0.54450000  0.74680000  1.0
  O2-  O3  1  0.46460000  0.12660000  0.34220000  1.0
  O2-  O3  1  0.46460000  0.62660000  0.34220000  1.0
  O2-  O3  1  0.96460000  0.12660000  0.34220000  1.0
  O2-  O3  1  0.96460000  0.62660000  0.34220000  1.0
  O2-  O3  1  0.46460000  0.32890000  0.91100000  1.0
  O2-  O3  1  0.46460000  0.82890000  0.91100000  1.0
  O2-  O3  1  0.96460000  0.32890000  0.91100000  1.0
  O2-  O3  1  0.96460000  0.82890000  0.91100000  1.0
  O2-  O4  1  0.37500000  0.00000000  0.00000000  1.0
  O2-  O4  1  0.37500000  0.50000000  1.00000000  1.0
  O2-  O4  1  0.87500000  0.00000000  0.00000000  1.0
  O2-  O4  1  0.87500000  0.50000000  0.00000000  1.0
  O2-  O4  1  0.12500000  0.00000000  0.00000000  1.0
  O2-  O4  1  0.12500000  0.50000000  1.00000000  1.0
  O2-  O4  1  0.62500000  0.00000000  0.00000000  1.0
  O2-  O4  1  0.62500000  0.50000000  0.00000000  1.0
