# generated using pymatgen
data_Li3SbS4
_symmetry_space_group_name_H-M   'P 1'
_cell_length_a   12.75480000
_cell_length_b   13.68080000
_cell_length_c   23.89350000
_cell_angle_alpha   90.00000000
_cell_angle_beta   90.00000000
_cell_angle_gamma   90.00000000
_symmetry_Int_Tables_number   1
_chemical_formula_structural   Li3SbS4
_chemical_formula_sum   'Li72 Sb24 S96'
_cell_volume   4169.31701824
_cell_formula_units_Z   24
loop_
 _symmetry_equiv_pos_site_id
 _symmetry_equiv_pos_as_xyz
  1  'x, y, z'
loop_
 _atom_type_symbol
 _atom_type_oxidation_number
  Li+  1.0
  Sb5+  5.0
  S2-  -2.0
loop_
 _atom_site_type_symbol
 _atom_site_label
 _atom_site_symmetry_multiplicity
 _atom_site_fract_x
 _atom_site_fract_y
 _atom_site_fract_z
 _atom_site_occupancy
  Li+  Li1  1  0.01730000  0.08770000  0.08136667  1.0
  Li+  Li1  1  0.01730000  0.08770000  0.41470000  1.0
  Li+  Li1  1  0.01730000  0.08770000  0.74803333  1.0
  Li+  Li1  1  0.01730000  0.58770000  0.08136667  1.0
  Li+  Li1  1  0.01730000  0.58770000  0.41470000  1.0
  Li+  Li1  1  0.01730000  0.58770000  0.74803333  1.0
  Li+  Li1  1  0.51730000  0.08770000  0.08136667  1.0
  Li+  Li1  1  0.51730000  0.08770000  0.41470000  1.0
  Li+  Li1  1  0.51730000  0.08770000  0.74803333  1.0
  Li+  Li1  1  0.51730000  0.58770000  0.08136667  1.0
  Li+  Li1  1  0.51730000  0.58770000  0.41470000  1.0
  Li+  Li1  1  0.51730000  0.58770000  0.74803333  1.0
  Li+  Li1  1  0.01730000  0.08770000  0.25196667  1.0
  Li+  Li1  1  0.01730000  0.08770000  0.58530000  1.0
  Li+  Li1  1  0.01730000  0.08770000  0.91863333  1.0
  Li+  Li1  1  0.01730000  0.58770000  0.25196667  1.0
  Li+  Li1  1  0.01730000  0.58770000  0.58530000  1.0
  Li+  Li1  1  0.01730000  0.58770000  0.91863333  1.0
  Li+  Li1  1  0.51730000  0.08770000  0.25196667  1.0
  Li+  Li1  1  0.51730000  0.08770000  0.58530000  1.0
  Li+  Li1  1  0.51730000  0.08770000  0.91863333  1.0
  Li+  Li1  1  0.51730000  0.58770000  0.25196667  1.0
  Li+  Li1  1  0.51730000  0.58770000  0.58530000  1.0
  Li+  Li1  1  0.51730000  0.58770000  0.91863333  1.0
  Li+  Li1  1  0.26730000  0.41230000  0.08530000  1.0
  Li+  Li1  1  0.26730000  0.41230000  0.41863333  1.0
  Li+  Li1  1  0.26730000  0.41230000  0.75196667  1.0
  Li+  Li1  1  0.26730000  0.91230000  0.08530000  1.0
  Li+  Li1  1  0.26730000  0.91230000  0.41863333  1.0
  Li+  Li1  1  0.26730000  0.91230000  0.75196667  1.0
  Li+  Li1  1  0.76730000  0.41230000  0.08530000  1.0
  Li+  Li1  1  0.76730000  0.41230000  0.41863333  1.0
  Li+  Li1  1  0.76730000  0.41230000  0.75196667  1.0
  Li+  Li1  1  0.76730000  0.91230000  0.08530000  1.0
  Li+  Li1  1  0.76730000  0.91230000  0.41863333  1.0
  Li+  Li1  1  0.76730000  0.91230000  0.75196667  1.0
  Li+  Li1  1  0.26730000  0.41230000  0.24803333  1.0
  Li+  Li1  1  0.26730000  0.41230000  0.58136667  1.0
  Li+  Li1  1  0.26730000  0.41230000  0.91470000  1.0
  Li+  Li1  1  0.26730000  0.91230000  0.24803333  1.0
  Li+  Li1  1  0.26730000  0.91230000  0.58136667  1.0
  Li+  Li1  1  0.26730000  0.91230000  0.91470000  1.0
  Li+  Li1  1  0.76730000  0.41230000  0.24803333  1.0
  Li+  Li1  1  0.76730000  0.41230000  0.58136667  1.0
  Li+  Li1  1  0.76730000  0.41230000  0.91470000  1.0
  Li+  Li1  1  0.76730000  0.91230000  0.24803333  1.0
  Li+  Li1  1  0.76730000  0.91230000  0.58136667  1.0
  Li+  Li1  1  0.76730000  0.91230000  0.91470000  1.0
  Li+  Li2  1  0.01795000  0.32310000  0.16666667  1.0
  Li+  Li2  1  0.01795000  0.32310000  0.50000000  1.0
  Li+  Li2  1  0.01795000  0.32310000  0.83333333  1.0
  Li+  Li2  1  0.01795000  0.82310000  0.16666667  1.0
  Li+  Li2  1  0.01795000  0.82310000  0.50000000  1.0
  Li+  Li2  1  0.01795000  0.82310000  0.83333333  1.0
  Li+  Li2  1  0.51795000  0.32310000  0.16666667  1.0
  Li+  Li2  1  0.51795000  0.32310000  0.50000000  1.0
  Li+  Li2  1  0.51795000  0.32310000  0.83333333  1.0
  Li+  Li2  1  0.51795000  0.82310000  0.16666667  1.0
  Li+  Li2  1  0.51795000  0.82310000  0.50000000  1.0
  Li+  Li2  1  0.51795000  0.82310000  0.83333333  1.0
  Li+  Li2  1  0.26795000  0.17690000  0.00000000  1.0
  Li+  Li2  1  0.26795000  0.17690000  0.33333333  1.0
  Li+  Li2  1  0.26795000  0.17690000  0.66666667  1.0
  Li+  Li2  1  0.26795000  0.67690000  0.00000000  1.0
  Li+  Li2  1  0.26795000  0.67690000  0.33333333  1.0
  Li+  Li2  1  0.26795000  0.67690000  0.66666667  1.0
  Li+  Li2  1  0.76795000  0.17690000  0.00000000  1.0
  Li+  Li2  1  0.76795000  0.17690000  0.33333333  1.0
  Li+  Li2  1  0.76795000  0.17690000  0.66666667  1.0
  Li+  Li2  1  0.76795000  0.67690000  0.00000000  1.0
  Li+  Li2  1  0.76795000  0.67690000  0.33333333  1.0
  Li+  Li2  1  0.76795000  0.67690000  0.66666667  1.0
  Sb5+  Sb1  1  0.25000000  0.16375000  0.16666667  1.0
  Sb5+  Sb1  1  0.25000000  0.16375000  0.50000000  1.0
  Sb5+  Sb1  1  0.25000000  0.16375000  0.83333333  1.0
  Sb5+  Sb1  1  0.25000000  0.66375000  0.16666667  1.0
  Sb5+  Sb1  1  0.25000000  0.66375000  0.50000000  1.0
  Sb5+  Sb1  1  0.25000000  0.66375000  0.83333333  1.0
  Sb5+  Sb1  1  0.75000000  0.16375000  0.16666667  1.0
  Sb5+  Sb1  1  0.75000000  0.16375000  0.50000000  1.0
  Sb5+  Sb1  1  0.75000000  0.16375000  0.83333333  1.0
  Sb5+  Sb1  1  0.75000000  0.66375000  0.16666667  1.0
  Sb5+  Sb1  1  0.75000000  0.66375000  0.50000000  1.0
  Sb5+  Sb1  1  0.75000000  0.66375000  0.83333333  1.0
  Sb5+  Sb1  1  0.00000000  0.33625000  0.00000000  1.0
  Sb5+  Sb1  1  0.00000000  0.33625000  0.33333333  1.0
  Sb5+  Sb1  1  0.00000000  0.33625000  0.66666667  1.0
  Sb5+  Sb1  1  0.00000000  0.83625000  0.00000000  1.0
  Sb5+  Sb1  1  0.00000000  0.83625000  0.33333333  1.0
  Sb5+  Sb1  1  0.00000000  0.83625000  0.66666667  1.0
  Sb5+  Sb1  1  0.50000000  0.33625000  0.00000000  1.0
  Sb5+  Sb1  1  0.50000000  0.33625000  0.33333333  1.0
  Sb5+  Sb1  1  0.50000000  0.33625000  0.66666667  1.0
  Sb5+  Sb1  1  0.50000000  0.83625000  0.00000000  1.0
  Sb5+  Sb1  1  0.50000000  0.83625000  0.33333333  1.0
  Sb5+  Sb1  1  0.50000000  0.83625000  0.66666667  1.0
  S2-  S1  1  0.18785000  0.08260000  0.08600000  1.0
  S2-  S1  1  0.18785000  0.08260000  0.41933333  1.0
  S2-  S1  1  0.18785000  0.08260000  0.75266667  1.0
  S2-  S1  1  0.18785000  0.58260000  0.08600000  1.0
  S2-  S1  1  0.18785000  0.58260000  0.41933333  1.0
  S2-  S1  1  0.18785000  0.58260000  0.75266667  1.0
  S2-  S1  1  0.68785000  0.08260000  0.08600000  1.0
  S2-  S1  1  0.68785000  0.08260000  0.41933333  1.0
  S2-  S1  1  0.68785000  0.08260000  0.75266667  1.0
  S2-  S1  1  0.68785000  0.58260000  0.08600000  1.0
  S2-  S1  1  0.68785000  0.58260000  0.41933333  1.0
  S2-  S1  1  0.68785000  0.58260000  0.75266667  1.0
  S2-  S1  1  0.18785000  0.08260000  0.24733333  1.0
  S2-  S1  1  0.18785000  0.08260000  0.58066667  1.0
  S2-  S1  1  0.18785000  0.08260000  0.91400000  1.0
  S2-  S1  1  0.18785000  0.58260000  0.24733333  1.0
  S2-  S1  1  0.18785000  0.58260000  0.58066667  1.0
  S2-  S1  1  0.18785000  0.58260000  0.91400000  1.0
  S2-  S1  1  0.68785000  0.08260000  0.24733333  1.0
  S2-  S1  1  0.68785000  0.08260000  0.58066667  1.0
  S2-  S1  1  0.68785000  0.08260000  0.91400000  1.0
  S2-  S1  1  0.68785000  0.58260000  0.24733333  1.0
  S2-  S1  1  0.68785000  0.58260000  0.58066667  1.0
  S2-  S1  1  0.68785000  0.58260000  0.91400000  1.0
  S2-  S1  1  0.43785000  0.41740000  0.08066667  1.0
  S2-  S1  1  0.43785000  0.41740000  0.41400000  1.0
  S2-  S1  1  0.43785000  0.41740000  0.74733333  1.0
  S2-  S1  1  0.43785000  0.91740000  0.08066667  1.0
  S2-  S1  1  0.43785000  0.91740000  0.41400000  1.0
  S2-  S1  1  0.43785000  0.91740000  0.74733333  1.0
  S2-  S1  1  0.93785000  0.41740000  0.08066667  1.0
  S2-  S1  1  0.93785000  0.41740000  0.41400000  1.0
  S2-  S1  1  0.93785000  0.41740000  0.74733333  1.0
  S2-  S1  1  0.93785000  0.91740000  0.08066667  1.0
  S2-  S1  1  0.93785000  0.91740000  0.41400000  1.0
  S2-  S1  1  0.93785000  0.91740000  0.74733333  1.0
  S2-  S1  1  0.43785000  0.41740000  0.25266667  1.0
  S2-  S1  1  0.43785000  0.41740000  0.58600000  1.0
  S2-  S1  1  0.43785000  0.41740000  0.91933333  1.0
  S2-  S1  1  0.43785000  0.91740000  0.25266667  1.0
  S2-  S1  1  0.43785000  0.91740000  0.58600000  1.0
  S2-  S1  1  0.43785000  0.91740000  0.91933333  1.0
  S2-  S1  1  0.93785000  0.41740000  0.25266667  1.0
  S2-  S1  1  0.93785000  0.41740000  0.58600000  1.0
  S2-  S1  1  0.93785000  0.41740000  0.91933333  1.0
  S2-  S1  1  0.93785000  0.91740000  0.25266667  1.0
  S2-  S1  1  0.93785000  0.91740000  0.58600000  1.0
  S2-  S1  1  0.93785000  0.91740000  0.91933333  1.0
  S2-  S2  1  0.18580000  0.32610000  0.16666667  1.0
  S2-  S2  1  0.18580000  0.32610000  0.50000000  1.0
  S2-  S2  1  0.18580000  0.32610000  0.83333333  1.0
  S2-  S2  1  0.18580000  0.82610000  0.16666667  1.0
  S2-  S2  1  0.18580000  0.82610000  0.50000000  1.0
  S2-  S2  1  0.18580000  0.82610000  0.83333333  1.0
  S2-  S2  1  0.68580000  0.32610000  0.16666667  1.0
  S2-  S2  1  0.68580000  0.32610000  0.50000000  1.0
  S2-  S2  1  0.68580000  0.32610000  0.83333333  1.0
  S2-  S2  1  0.68580000  0.82610000  0.16666667  1.0
  S2-  S2  1  0.68580000  0.82610000  0.50000000  1.0
  S2-  S2  1  0.68580000  0.82610000  0.83333333  1.0
  S2-  S2  1  0.43580000  0.17390000  0.00000000  1.0
  S2-  S2  1  0.43580000  0.17390000  0.33333333  1.0
  S2-  S2  1  0.43580000  0.17390000  0.66666667  1.0
  S2-  S2  1  0.43580000  0.67390000  0.00000000  1.0
  S2-  S2  1  0.43580000  0.67390000  0.33333333  1.0
  S2-  S2  1  0.43580000  0.67390000  0.66666667  1.0
  S2-  S2  1  0.93580000  0.17390000  0.00000000  1.0
  S2-  S2  1  0.93580000  0.17390000  0.33333333  1.0
  S2-  S2  1  0.93580000  0.17390000  0.66666667  1.0
  S2-  S2  1  0.93580000  0.67390000  0.00000000  1.0
  S2-  S2  1  0.93580000  0.67390000  0.33333333  1.0
  S2-  S2  1  0.93580000  0.67390000  0.66666667  1.0
  S2-  S3  1  0.43135000  0.15895000  0.16666667  1.0
  S2-  S3  1  0.43135000  0.15895000  0.50000000  1.0
  S2-  S3  1  0.43135000  0.15895000  0.83333333  1.0
  S2-  S3  1  0.43135000  0.65895000  0.16666667  1.0
  S2-  S3  1  0.43135000  0.65895000  0.50000000  1.0
  S2-  S3  1  0.43135000  0.65895000  0.83333333  1.0
  S2-  S3  1  0.93135000  0.15895000  0.16666667  1.0
  S2-  S3  1  0.93135000  0.15895000  0.50000000  1.0
  S2-  S3  1  0.93135000  0.15895000  0.83333333  1.0
  S2-  S3  1  0.93135000  0.65895000  0.16666667  1.0
  S2-  S3  1  0.93135000  0.65895000  0.50000000  1.0
  S2-  S3  1  0.93135000  0.65895000  0.83333333  1.0
  S2-  S3  1  0.18135000  0.34105000  0.00000000  1.0
  S2-  S3  1  0.18135000  0.34105000  0.33333333  1.0
  S2-  S3  1  0.18135000  0.34105000  0.66666667  1.0
  S2-  S3  1  0.18135000  0.84105000  0.00000000  1.0
  S2-  S3  1  0.18135000  0.84105000  0.33333333  1.0
  S2-  S3  1  0.18135000  0.84105000  0.66666667  1.0
  S2-  S3  1  0.68135000  0.34105000  0.00000000  1.0
  S2-  S3  1  0.68135000  0.34105000  0.33333333  1.0
  S2-  S3  1  0.68135000  0.34105000  0.66666667  1.0
  S2-  S3  1  0.68135000  0.84105000  0.00000000  1.0
  S2-  S3  1  0.68135000  0.84105000  0.33333333  1.0
  S2-  S3  1  0.68135000  0.84105000  0.66666667  1.0
