# generated using pymatgen
data_Li9ZrSc9O20
_symmetry_space_group_name_H-M   'P 1'
_cell_length_a   8.36080000
_cell_length_b   11.12031988
_cell_length_c   20.90200000
_cell_angle_alpha   112.08146026
_cell_angle_beta   90.00000000
_cell_angle_gamma   67.91853974
_symmetry_Int_Tables_number   1
_chemical_formula_structural   Li9ZrSc9O20
_chemical_formula_sum   'Li36 Zr4 Sc36 O80'
_cell_volume   1645.97043922
_cell_formula_units_Z   4
loop_
 _symmetry_equiv_pos_site_id
 _symmetry_equiv_pos_as_xyz
  1  'x, y, z'
loop_
 _atom_type_symbol
 _atom_type_oxidation_number
  Li+  1.0
  Zr4+  4.0
  Sc3+  3.0
  O2-  -2.0
loop_
 _atom_site_type_symbol
 _atom_site_label
 _atom_site_symmetry_multiplicity
 _atom_site_fract_x
 _atom_site_fract_y
 _atom_site_fract_z
 _atom_site_occupancy
  Li+  Li0  1  0.18750000  0.62500000  0.62500000  1.0
  Li+  Li1  1  0.18750000  0.12500000  0.62500000  1.0
  Li+  Li2  1  0.18750000  0.62500000  0.42500000  1.0
  Li+  Li3  1  0.18750000  0.12500000  0.42500000  1.0
  Li+  Li4  1  0.18750000  0.62500000  0.22500000  1.0
  Li+  Li5  1  0.18725506  0.12584709  0.22648287  1.0
  Li+  Li6  1  0.18750000  0.62500000  0.02500000  1.0
  Li+  Li7  1  0.18750000  0.12500000  0.02500000  1.0
  Li+  Li8  1  0.18750000  0.62500000  0.82500000  1.0
  Li+  Li9  1  0.18750000  0.12500000  0.82500000  1.0
  Li+  Li10  1  0.67997211  0.62871569  0.62516427  1.0
  Li+  Li11  1  0.68750000  0.12500000  0.62500000  1.0
  Li+  Li12  1  0.68515805  0.62787251  0.42854658  1.0
  Li+  Li13  1  0.68750000  0.12500000  0.42500000  1.0
  Li+  Li14  1  0.68750000  0.62500000  0.22500000  1.0
  Li+  Li15  1  0.68966038  0.12210984  0.22708075  1.0
  Li+  Li16  1  0.68750000  0.62500000  0.02500000  1.0
  Li+  Li17  1  0.68750000  0.12500000  0.02500000  1.0
  Li+  Li18  1  0.68750000  0.62500000  0.82500000  1.0
  Li+  Li19  1  0.68750000  0.12500000  0.82500000  1.0
  Li+  Li20  1  0.31250000  0.87500000  0.67500000  1.0
  Li+  Li21  1  0.31250000  0.37500000  0.67500000  1.0
  Li+  Li22  1  0.31575674  0.88139006  0.47564521  1.0
  Li+  Li23  1  0.31250000  0.37500000  0.47500000  1.0
  Li+  Li24  1  0.31250000  0.87500000  0.27500000  1.0
  Li+  Li25  1  0.31250000  0.37500000  0.27500000  1.0
  Li+  Li26  1  0.31020500  0.87353129  0.07124107  1.0
  Li+  Li27  1  0.31250000  0.37500000  0.07500000  1.0
  Li+  Li28  1  0.81250000  0.87500000  0.67500000  1.0
  Li+  Li29  1  0.81250000  0.37500000  0.67500000  1.0
  Li+  Li30  1  0.81250000  0.87500000  0.47500000  1.0
  Li+  Li31  1  0.81250000  0.37500000  0.47500000  1.0
  Li+  Li32  1  0.81172571  0.87122151  0.27759296  1.0
  Li+  Li33  1  0.81250000  0.37500000  0.27500000  1.0
  Li+  Li34  1  0.81250000  0.87500000  0.07500000  1.0
  Li+  Li35  1  0.81250000  0.37500000  0.07500000  1.0
  Zr4+  Zr36  1  0.56104622  0.87431450  0.76930680  1.0
  Zr4+  Zr37  1  0.56055296  0.37510930  0.77807025  1.0
  Zr4+  Zr38  1  0.43750000  0.62500000  0.92500000  1.0
  Zr4+  Zr39  1  0.43750000  0.12500000  0.92500000  1.0
  Sc3+  Sc40  1  0.06388117  0.87351907  0.57051183  1.0
  Sc3+  Sc41  1  0.06243053  0.37540168  0.57157745  1.0
  Sc3+  Sc42  1  0.06250000  0.87500000  0.37500000  1.0
  Sc3+  Sc43  1  0.06250000  0.37500000  0.37500000  1.0
  Sc3+  Sc44  1  0.06250000  0.87500000  0.17500000  1.0
  Sc3+  Sc45  1  0.06356412  0.37539195  0.17164015  1.0
  Sc3+  Sc46  1  0.06250000  0.87500000  0.97500000  1.0
  Sc3+  Sc47  1  0.05992642  0.37725503  0.96879506  1.0
  Sc3+  Sc48  1  0.06250000  0.87500000  0.77500000  1.0
  Sc3+  Sc49  1  0.06250000  0.37500000  0.77500000  1.0
  Sc3+  Sc50  1  0.56250000  0.87500000  0.57500000  1.0
  Sc3+  Sc51  1  0.56250000  0.37500000  0.57500000  1.0
  Sc3+  Sc52  1  0.56358995  0.87634105  0.37775334  1.0
  Sc3+  Sc53  1  0.56250000  0.37500000  0.37500000  1.0
  Sc3+  Sc54  1  0.56226402  0.87303070  0.17148016  1.0
  Sc3+  Sc55  1  0.56250000  0.37500000  0.17500000  1.0
  Sc3+  Sc56  1  0.56250000  0.87500000  0.97500000  1.0
  Sc3+  Sc57  1  0.56250000  0.37500000  0.97500000  1.0
  Sc3+  Sc58  1  0.43750000  0.62500000  0.72500000  1.0
  Sc3+  Sc59  1  0.43750000  0.12500000  0.72500000  1.0
  Sc3+  Sc60  1  0.43750000  0.62500000  0.52500000  1.0
  Sc3+  Sc61  1  0.43750000  0.12500000  0.52500000  1.0
  Sc3+  Sc62  1  0.43750000  0.62500000  0.32500000  1.0
  Sc3+  Sc63  1  0.43480241  0.12276017  0.32171150  1.0
  Sc3+  Sc64  1  0.43750000  0.62500000  0.12500000  1.0
  Sc3+  Sc65  1  0.43750000  0.12500000  0.12500000  1.0
  Sc3+  Sc66  1  0.93750000  0.62500000  0.72500000  1.0
  Sc3+  Sc67  1  0.93518172  0.12312062  0.73039341  1.0
  Sc3+  Sc68  1  0.93750000  0.62500000  0.52500000  1.0
  Sc3+  Sc69  1  0.93750000  0.12500000  0.52500000  1.0
  Sc3+  Sc70  1  0.93729084  0.62427427  0.31961846  1.0
  Sc3+  Sc71  1  0.93957602  0.12451045  0.32172600  1.0
  Sc3+  Sc72  1  0.93750000  0.62500000  0.12500000  1.0
  Sc3+  Sc73  1  0.93750000  0.12500000  0.12500000  1.0
  Sc3+  Sc74  1  0.93750000  0.62500000  0.92500000  1.0
  Sc3+  Sc75  1  0.93750000  0.12500000  0.92500000  1.0
  O2-  O76  1  0.32603500  0.84793000  0.56958600  1.0
  O2-  O77  1  0.32649401  0.34654567  0.56957811  1.0
  O2-  O78  1  0.32603500  0.84793000  0.36958600  1.0
  O2-  O79  1  0.32603500  0.34793000  0.36958600  1.0
  O2-  O80  1  0.32603500  0.84793000  0.16958600  1.0
  O2-  O81  1  0.32993881  0.34469756  0.17004121  1.0
  O2-  O82  1  0.32603500  0.84793000  0.96958600  1.0
  O2-  O83  1  0.32603500  0.34793000  0.96958600  1.0
  O2-  O84  1  0.32603500  0.84793000  0.76958600  1.0
  O2-  O85  1  0.32603500  0.34793000  0.76958600  1.0
  O2-  O86  1  0.82603500  0.84793000  0.56958600  1.0
  O2-  O87  1  0.82857972  0.34279818  0.57500648  1.0
  O2-  O88  1  0.82603500  0.84793000  0.36958600  1.0
  O2-  O89  1  0.82603500  0.34793000  0.36958600  1.0
  O2-  O90  1  0.82594574  0.84666965  0.16554747  1.0
  O2-  O91  1  0.82603500  0.34793000  0.16958600  1.0
  O2-  O92  1  0.82870925  0.84622104  0.97081762  1.0
  O2-  O93  1  0.82599769  0.34682494  0.97639909  1.0
  O2-  O94  1  0.82603500  0.84793000  0.76958600  1.0
  O2-  O95  1  0.82603500  0.34793000  0.76958600  1.0
  O2-  O96  1  0.45329977  0.59604117  0.62280819  1.0
  O2-  O97  1  0.45103500  0.09793000  0.61958600  1.0
  O2-  O98  1  0.45072198  0.59741437  0.42358216  1.0
  O2-  O99  1  0.45170380  0.09310713  0.41946503  1.0
  O2-  O100  1  0.45103500  0.59793000  0.21958600  1.0
  O2-  O101  1  0.44856483  0.10278644  0.21669133  1.0
  O2-  O102  1  0.45103500  0.59793000  0.01958600  1.0
  O2-  O103  1  0.45103500  0.09793000  0.01958600  1.0
  O2-  O104  1  0.45103500  0.59793000  0.81958600  1.0
  O2-  O105  1  0.45103500  0.09793000  0.81958600  1.0
  O2-  O106  1  0.95103500  0.59793000  0.61958600  1.0
  O2-  O107  1  0.95103500  0.09793000  0.61958600  1.0
  O2-  O108  1  0.95103500  0.59793000  0.41958600  1.0
  O2-  O109  1  0.95103500  0.09793000  0.41958600  1.0
  O2-  O110  1  0.95103500  0.59793000  0.21958600  1.0
  O2-  O111  1  0.95103500  0.09793000  0.21958600  1.0
  O2-  O112  1  0.95103500  0.59793000  0.01958600  1.0
  O2-  O113  1  0.95103500  0.09793000  0.01958600  1.0
  O2-  O114  1  0.95103500  0.59793000  0.81958600  1.0
  O2-  O115  1  0.95103500  0.09793000  0.81958600  1.0
  O2-  O116  1  0.17396500  0.65207000  0.73041400  1.0
  O2-  O117  1  0.17536800  0.15551458  0.73169199  1.0
  O2-  O118  1  0.17396500  0.65207000  0.53041400  1.0
  O2-  O119  1  0.17396500  0.15207000  0.53041400  1.0
  O2-  O120  1  0.17396500  0.65207000  0.33041400  1.0
  O2-  O121  1  0.17396500  0.15207000  0.33041400  1.0
  O2-  O122  1  0.17396500  0.65207000  0.13041400  1.0
  O2-  O123  1  0.17396500  0.15207000  0.13041400  1.0
  O2-  O124  1  0.17610747  0.65277868  0.93019142  1.0
  O2-  O125  1  0.17396500  0.15207000  0.93041400  1.0
  O2-  O126  1  0.67396500  0.65207000  0.73041400  1.0
  O2-  O127  1  0.67396500  0.15207000  0.73041400  1.0
  O2-  O128  1  0.67396500  0.65207000  0.53041400  1.0
  O2-  O129  1  0.67396500  0.15207000  0.53041400  1.0
  O2-  O130  1  0.67297733  0.65371813  0.32685793  1.0
  O2-  O131  1  0.67396500  0.15207000  0.33041400  1.0
  O2-  O132  1  0.67396500  0.65207000  0.13041400  1.0
  O2-  O133  1  0.67396500  0.15207000  0.13041400  1.0
  O2-  O134  1  0.67505740  0.65032904  0.93427133  1.0
  O2-  O135  1  0.67396500  0.15207000  0.93041400  1.0
  O2-  O136  1  0.04896500  0.90207000  0.68041400  1.0
  O2-  O137  1  0.04896500  0.40207000  0.68041400  1.0
  O2-  O138  1  0.05097694  0.90453844  0.48412243  1.0
  O2-  O139  1  0.04896500  0.40207000  0.48041400  1.0
  O2-  O140  1  0.04896500  0.90207000  0.28041400  1.0
  O2-  O141  1  0.04896500  0.40207000  0.28041400  1.0
  O2-  O142  1  0.04896500  0.90207000  0.08041400  1.0
  O2-  O143  1  0.05480778  0.40027804  0.08017630  1.0
  O2-  O144  1  0.04896500  0.90207000  0.88041400  1.0
  O2-  O145  1  0.04583993  0.40051614  0.88190687  1.0
  O2-  O146  1  0.54896500  0.90207000  0.68041400  1.0
  O2-  O147  1  0.54896500  0.40207000  0.68041400  1.0
  O2-  O148  1  0.54896500  0.90207000  0.48041400  1.0
  O2-  O149  1  0.54896500  0.40207000  0.48041400  1.0
  O2-  O150  1  0.54634120  0.90438492  0.28215397  1.0
  O2-  O151  1  0.54837225  0.39842828  0.28043959  1.0
  O2-  O152  1  0.55015598  0.90222274  0.07900529  1.0
  O2-  O153  1  0.54896500  0.40207000  0.08041400  1.0
  O2-  O154  1  0.54896500  0.90207000  0.88041400  1.0
  O2-  O155  1  0.54896500  0.40207000  0.88041400  1.0
