# generated using pymatgen
data_Li9ZrSc9O20
_symmetry_space_group_name_H-M   'P 1'
_cell_length_a   20.82707995
_cell_length_b   8.33083198
_cell_length_c   11.08046078
_cell_angle_alpha   67.91853974
_cell_angle_beta   67.91853974
_cell_angle_gamma   90.00000000
_symmetry_Int_Tables_number   1
_chemical_formula_structural   Li9ZrSc9O20
_chemical_formula_sum   'Li36 Zr4 Sc36 O80'
_cell_volume   1628.33460912
_cell_formula_units_Z   4
loop_
 _symmetry_equiv_pos_site_id
 _symmetry_equiv_pos_as_xyz
  1  'x, y, z'
loop_
 _atom_type_symbol
 _atom_type_oxidation_number
  Li+  1.0
  Zr4+  4.0
  Sc3+  3.0
  O2-  -2.0
loop_
 _atom_site_type_symbol
 _atom_site_label
 _atom_site_symmetry_multiplicity
 _atom_site_fract_x
 _atom_site_fract_y
 _atom_site_fract_z
 _atom_site_occupancy
  Li+  Li0  1  0.87500000  0.47916667  0.37500000  1.0
  Li+  Li1  1  0.87500000  0.47916667  0.87500000  1.0
  Li+  Li2  1  0.67500000  0.47916667  0.37500000  1.0
  Li+  Li3  1  0.67500000  0.47916667  0.87500000  1.0
  Li+  Li4  1  0.47500000  0.47916667  0.37500000  1.0
  Li+  Li5  1  0.47500000  0.47916667  0.87500000  1.0
  Li+  Li6  1  0.27500000  0.47916667  0.37500000  1.0
  Li+  Li7  1  0.27500000  0.47916667  0.87500000  1.0
  Li+  Li8  1  0.07500000  0.47916667  0.37500000  1.0
  Li+  Li9  1  0.07500000  0.47916667  0.87500000  1.0
  Li+  Li10  1  0.87500000  0.97916667  0.37500000  1.0
  Li+  Li11  1  0.87500000  0.97916667  0.87500000  1.0
  Li+  Li12  1  0.67500000  0.97916667  0.37500000  1.0
  Li+  Li13  1  0.67500000  0.97916667  0.87500000  1.0
  Li+  Li14  1  0.47500000  0.97916667  0.37500000  1.0
  Li+  Li15  1  0.47500000  0.97916667  0.87500000  1.0
  Li+  Li16  1  0.27500000  0.97916667  0.37500000  1.0
  Li+  Li17  1  0.27500000  0.97916667  0.87500000  1.0
  Li+  Li18  1  0.07500000  0.97916667  0.37500000  1.0
  Li+  Li19  1  0.07500000  0.97916667  0.87500000  1.0
  Li+  Li20  1  0.92500000  0.35416667  0.12500000  1.0
  Li+  Li21  1  0.92500000  0.35416667  0.62500000  1.0
  Li+  Li22  1  0.72500000  0.35416667  0.12500000  1.0
  Li+  Li23  1  0.72500000  0.35416667  0.62500000  1.0
  Li+  Li24  1  0.52500000  0.35416667  0.12500000  1.0
  Li+  Li25  1  0.52500000  0.35416667  0.62500000  1.0
  Li+  Li26  1  0.32500000  0.35416667  0.12500000  1.0
  Li+  Li27  1  0.32500000  0.35416667  0.62500000  1.0
  Li+  Li28  1  0.92500000  0.85416667  0.12500000  1.0
  Li+  Li29  1  0.92500000  0.85416667  0.62500000  1.0
  Li+  Li30  1  0.72500000  0.85416667  0.12500000  1.0
  Li+  Li31  1  0.72500000  0.85416667  0.62500000  1.0
  Li+  Li32  1  0.52500000  0.85416667  0.12500000  1.0
  Li+  Li33  1  0.52500000  0.85416667  0.62500000  1.0
  Li+  Li34  1  0.32500000  0.85416667  0.12500000  1.0
  Li+  Li35  1  0.32500000  0.85416667  0.62500000  1.0
  Zr4+  Zr36  1  0.02500000  0.10416667  0.12500000  1.0
  Zr4+  Zr37  1  0.02500000  0.10416667  0.62500000  1.0
  Zr4+  Zr38  1  0.17500000  0.22916667  0.37500000  1.0
  Zr4+  Zr39  1  0.17500000  0.22916667  0.87500000  1.0
  Sc3+  Sc40  1  0.82500000  0.60416667  0.12500000  1.0
  Sc3+  Sc41  1  0.82500000  0.60416667  0.62500000  1.0
  Sc3+  Sc42  1  0.62500000  0.60416667  0.12500000  1.0
  Sc3+  Sc43  1  0.62500000  0.60416667  0.62500000  1.0
  Sc3+  Sc44  1  0.42500000  0.60416667  0.12500000  1.0
  Sc3+  Sc45  1  0.42500000  0.60416667  0.62500000  1.0
  Sc3+  Sc46  1  0.22500000  0.60416667  0.12500000  1.0
  Sc3+  Sc47  1  0.22500000  0.60416667  0.62500000  1.0
  Sc3+  Sc48  1  0.02500000  0.60416667  0.12500000  1.0
  Sc3+  Sc49  1  0.02500000  0.60416667  0.62500000  1.0
  Sc3+  Sc50  1  0.82500000  0.10416667  0.12500000  1.0
  Sc3+  Sc51  1  0.82500000  0.10416667  0.62500000  1.0
  Sc3+  Sc52  1  0.62500000  0.10416667  0.12500000  1.0
  Sc3+  Sc53  1  0.62500000  0.10416667  0.62500000  1.0
  Sc3+  Sc54  1  0.42500000  0.10416667  0.12500000  1.0
  Sc3+  Sc55  1  0.42500000  0.10416667  0.62500000  1.0
  Sc3+  Sc56  1  0.22500000  0.10416667  0.12500000  1.0
  Sc3+  Sc57  1  0.22500000  0.10416667  0.62500000  1.0
  Sc3+  Sc58  1  0.97500000  0.22916667  0.37500000  1.0
  Sc3+  Sc59  1  0.97500000  0.22916667  0.87500000  1.0
  Sc3+  Sc60  1  0.77500000  0.22916667  0.37500000  1.0
  Sc3+  Sc61  1  0.77500000  0.22916667  0.87500000  1.0
  Sc3+  Sc62  1  0.57500000  0.22916667  0.37500000  1.0
  Sc3+  Sc63  1  0.57500000  0.22916667  0.87500000  1.0
  Sc3+  Sc64  1  0.37500000  0.22916667  0.37500000  1.0
  Sc3+  Sc65  1  0.37500000  0.22916667  0.87500000  1.0
  Sc3+  Sc66  1  0.97500000  0.72916667  0.37500000  1.0
  Sc3+  Sc67  1  0.97500000  0.72916667  0.87500000  1.0
  Sc3+  Sc68  1  0.77500000  0.72916667  0.37500000  1.0
  Sc3+  Sc69  1  0.77500000  0.72916667  0.87500000  1.0
  Sc3+  Sc70  1  0.57500000  0.72916667  0.37500000  1.0
  Sc3+  Sc71  1  0.57500000  0.72916667  0.87500000  1.0
  Sc3+  Sc72  1  0.37500000  0.72916667  0.37500000  1.0
  Sc3+  Sc73  1  0.37500000  0.72916667  0.87500000  1.0
  Sc3+  Sc74  1  0.17500000  0.72916667  0.37500000  1.0
  Sc3+  Sc75  1  0.17500000  0.72916667  0.87500000  1.0
  O2-  O76  1  0.81958600  0.34063167  0.15207000  1.0
  O2-  O77  1  0.81958600  0.34063167  0.65207000  1.0
  O2-  O78  1  0.61958600  0.34063167  0.15207000  1.0
  O2-  O79  1  0.61958600  0.34063167  0.65207000  1.0
  O2-  O80  1  0.41958600  0.34063167  0.15207000  1.0
  O2-  O81  1  0.41958600  0.34063167  0.65207000  1.0
  O2-  O82  1  0.21958600  0.34063167  0.15207000  1.0
  O2-  O83  1  0.21958600  0.34063167  0.65207000  1.0
  O2-  O84  1  0.01958600  0.34063167  0.15207000  1.0
  O2-  O85  1  0.01958600  0.34063167  0.65207000  1.0
  O2-  O86  1  0.81958600  0.84063167  0.15207000  1.0
  O2-  O87  1  0.81958600  0.84063167  0.65207000  1.0
  O2-  O88  1  0.61958600  0.84063167  0.15207000  1.0
  O2-  O89  1  0.61958600  0.84063167  0.65207000  1.0
  O2-  O90  1  0.41958600  0.84063167  0.15207000  1.0
  O2-  O91  1  0.41958600  0.84063167  0.65207000  1.0
  O2-  O92  1  0.21958600  0.84063167  0.15207000  1.0
  O2-  O93  1  0.21958600  0.84063167  0.65207000  1.0
  O2-  O94  1  0.01958600  0.84063167  0.15207000  1.0
  O2-  O95  1  0.01958600  0.84063167  0.65207000  1.0
  O2-  O96  1  0.86958600  0.21563167  0.40207000  1.0
  O2-  O97  1  0.86958600  0.21563167  0.90207000  1.0
  O2-  O98  1  0.66958600  0.21563167  0.40207000  1.0
  O2-  O99  1  0.66958600  0.21563167  0.90207000  1.0
  O2-  O100  1  0.46958600  0.21563167  0.40207000  1.0
  O2-  O101  1  0.46958600  0.21563167  0.90207000  1.0
  O2-  O102  1  0.26958600  0.21563167  0.40207000  1.0
  O2-  O103  1  0.26958600  0.21563167  0.90207000  1.0
  O2-  O104  1  0.06958600  0.21563167  0.40207000  1.0
  O2-  O105  1  0.06958600  0.21563167  0.90207000  1.0
  O2-  O106  1  0.86958600  0.71563167  0.40207000  1.0
  O2-  O107  1  0.86958600  0.71563167  0.90207000  1.0
  O2-  O108  1  0.66958600  0.71563167  0.40207000  1.0
  O2-  O109  1  0.66958600  0.71563167  0.90207000  1.0
  O2-  O110  1  0.46958600  0.71563167  0.40207000  1.0
  O2-  O111  1  0.46958600  0.71563167  0.90207000  1.0
  O2-  O112  1  0.26958600  0.71563167  0.40207000  1.0
  O2-  O113  1  0.26958600  0.71563167  0.90207000  1.0
  O2-  O114  1  0.06958600  0.71563167  0.40207000  1.0
  O2-  O115  1  0.06958600  0.71563167  0.90207000  1.0
  O2-  O116  1  0.98041400  0.49270167  0.34793000  1.0
  O2-  O117  1  0.98041400  0.49270167  0.84793000  1.0
  O2-  O118  1  0.78041400  0.49270167  0.34793000  1.0
  O2-  O119  1  0.78041400  0.49270167  0.84793000  1.0
  O2-  O120  1  0.58041400  0.49270167  0.34793000  1.0
  O2-  O121  1  0.58041400  0.49270167  0.84793000  1.0
  O2-  O122  1  0.38041400  0.49270167  0.34793000  1.0
  O2-  O123  1  0.38041400  0.49270167  0.84793000  1.0
  O2-  O124  1  0.18041400  0.49270167  0.34793000  1.0
  O2-  O125  1  0.18041400  0.49270167  0.84793000  1.0
  O2-  O126  1  0.98041400  0.99270167  0.34793000  1.0
  O2-  O127  1  0.98041400  0.99270167  0.84793000  1.0
  O2-  O128  1  0.78041400  0.99270167  0.34793000  1.0
  O2-  O129  1  0.78041400  0.99270167  0.84793000  1.0
  O2-  O130  1  0.58041400  0.99270167  0.34793000  1.0
  O2-  O131  1  0.58041400  0.99270167  0.84793000  1.0
  O2-  O132  1  0.38041400  0.99270167  0.34793000  1.0
  O2-  O133  1  0.38041400  0.99270167  0.84793000  1.0
  O2-  O134  1  0.18041400  0.99270167  0.34793000  1.0
  O2-  O135  1  0.18041400  0.99270167  0.84793000  1.0
  O2-  O136  1  0.93041400  0.61770167  0.09793000  1.0
  O2-  O137  1  0.93041400  0.61770167  0.59793000  1.0
  O2-  O138  1  0.73041400  0.61770167  0.09793000  1.0
  O2-  O139  1  0.73041400  0.61770167  0.59793000  1.0
  O2-  O140  1  0.53041400  0.61770167  0.09793000  1.0
  O2-  O141  1  0.53041400  0.61770167  0.59793000  1.0
  O2-  O142  1  0.33041400  0.61770167  0.09793000  1.0
  O2-  O143  1  0.33041400  0.61770167  0.59793000  1.0
  O2-  O144  1  0.13041400  0.61770167  0.09793000  1.0
  O2-  O145  1  0.13041400  0.61770167  0.59793000  1.0
  O2-  O146  1  0.93041400  0.11770167  0.09793000  1.0
  O2-  O147  1  0.93041400  0.11770167  0.59793000  1.0
  O2-  O148  1  0.73041400  0.11770167  0.09793000  1.0
  O2-  O149  1  0.73041400  0.11770167  0.59793000  1.0
  O2-  O150  1  0.53041400  0.11770167  0.09793000  1.0
  O2-  O151  1  0.53041400  0.11770167  0.59793000  1.0
  O2-  O152  1  0.33041400  0.11770167  0.09793000  1.0
  O2-  O153  1  0.33041400  0.11770167  0.59793000  1.0
  O2-  O154  1  0.13041400  0.11770167  0.09793000  1.0
  O2-  O155  1  0.13041400  0.11770167  0.59793000  1.0
