# generated using pymatgen
data_Li9ZrSc9O20
_symmetry_space_group_name_H-M   'P 1'
_cell_length_a   8.36080000
_cell_length_b   20.90200000
_cell_length_c   11.12031988
_cell_angle_alpha   112.08146026
_cell_angle_beta   112.08146026
_cell_angle_gamma   90.00000000
_symmetry_Int_Tables_number   1
_chemical_formula_structural   Li9ZrSc9O20
_chemical_formula_sum   'Li36 Zr4 Sc36 O80'
_cell_volume   1645.97043922
_cell_formula_units_Z   4
loop_
 _symmetry_equiv_pos_site_id
 _symmetry_equiv_pos_as_xyz
  1  'x, y, z'
loop_
 _atom_type_symbol
 _atom_type_oxidation_number
  Li+  1.0
  Zr4+  4.0
  Sc3+  3.0
  O2-  -2.0
loop_
 _atom_site_type_symbol
 _atom_site_label
 _atom_site_symmetry_multiplicity
 _atom_site_fract_x
 _atom_site_fract_y
 _atom_site_fract_z
 _atom_site_occupancy
  Li+  Li0  1  0.18750000  0.12500000  0.37500000  1.0
  Li+  Li0  1  0.18750000  0.12500000  0.87500000  1.0
  Li+  Li1  1  0.18750000  0.32500000  0.37500000  1.0
  Li+  Li1  1  0.18750000  0.32500000  0.87500000  1.0
  Li+  Li2  1  0.18750000  0.52500000  0.37500000  1.0
  Li+  Li2  1  0.18750000  0.52500000  0.87500000  1.0
  Li+  Li3  1  0.18750000  0.72500000  0.37500000  1.0
  Li+  Li3  1  0.18750000  0.72500000  0.87500000  1.0
  Li+  Li4  1  0.18750000  0.92500000  0.37500000  1.0
  Li+  Li4  1  0.18750000  0.92500000  0.87500000  1.0
  Li+  Li5  1  0.68750000  0.12500000  0.37500000  1.0
  Li+  Li5  1  0.68750000  0.12500000  0.87500000  1.0
  Li+  Li6  1  0.68750000  0.32500000  0.37500000  1.0
  Li+  Li6  1  0.68750000  0.32500000  0.87500000  1.0
  Li+  Li7  1  0.68750000  0.52500000  0.37500000  1.0
  Li+  Li7  1  0.68750000  0.52500000  0.87500000  1.0
  Li+  Li8  1  0.68750000  0.72500000  0.37500000  1.0
  Li+  Li8  1  0.68750000  0.72500000  0.87500000  1.0
  Li+  Li9  1  0.68750000  0.92500000  0.37500000  1.0
  Li+  Li9  1  0.68750000  0.92500000  0.87500000  1.0
  Li+  Li10  1  0.31250000  0.07500000  0.12500000  1.0
  Li+  Li10  1  0.31250000  0.07500000  0.62500000  1.0
  Li+  Li11  1  0.31250000  0.27500000  0.12500000  1.0
  Li+  Li11  1  0.31250000  0.27500000  0.62500000  1.0
  Li+  Li12  1  0.31250000  0.47500000  0.12500000  1.0
  Li+  Li12  1  0.31250000  0.47500000  0.62500000  1.0
  Li+  Li13  1  0.31250000  0.67500000  0.12500000  1.0
  Li+  Li13  1  0.31250000  0.67500000  0.62500000  1.0
  Li+  Li14  1  0.81250000  0.07500000  0.12500000  1.0
  Li+  Li14  1  0.81250000  0.07500000  0.62500000  1.0
  Li+  Li15  1  0.81250000  0.27500000  0.12500000  1.0
  Li+  Li15  1  0.81250000  0.27500000  0.62500000  1.0
  Li+  Li16  1  0.81250000  0.47500000  0.12500000  1.0
  Li+  Li16  1  0.81250000  0.47500000  0.62500000  1.0
  Li+  Li17  1  0.81250000  0.67500000  0.12500000  1.0
  Li+  Li17  1  0.81250000  0.67500000  0.62500000  1.0
  Zr4+  Zr18  1  0.56250000  0.97500000  0.12500000  1.0
  Zr4+  Zr18  1  0.56250000  0.97500000  0.62500000  1.0
  Zr4+  Zr19  1  0.43750000  0.82500000  0.37500000  1.0
  Zr4+  Zr19  1  0.43750000  0.82500000  0.87500000  1.0
  Sc3+  Sc20  1  0.06250000  0.17500000  0.12500000  1.0
  Sc3+  Sc20  1  0.06250000  0.17500000  0.62500000  1.0
  Sc3+  Sc21  1  0.06250000  0.37500000  0.12500000  1.0
  Sc3+  Sc21  1  0.06250000  0.37500000  0.62500000  1.0
  Sc3+  Sc22  1  0.06250000  0.57500000  0.12500000  1.0
  Sc3+  Sc22  1  0.06250000  0.57500000  0.62500000  1.0
  Sc3+  Sc23  1  0.06250000  0.77500000  0.12500000  1.0
  Sc3+  Sc23  1  0.06250000  0.77500000  0.62500000  1.0
  Sc3+  Sc24  1  0.06250000  0.97500000  0.12500000  1.0
  Sc3+  Sc24  1  0.06250000  0.97500000  0.62500000  1.0
  Sc3+  Sc25  1  0.56250000  0.17500000  0.12500000  1.0
  Sc3+  Sc25  1  0.56250000  0.17500000  0.62500000  1.0
  Sc3+  Sc26  1  0.56250000  0.37500000  0.12500000  1.0
  Sc3+  Sc26  1  0.56250000  0.37500000  0.62500000  1.0
  Sc3+  Sc27  1  0.56250000  0.57500000  0.12500000  1.0
  Sc3+  Sc27  1  0.56250000  0.57500000  0.62500000  1.0
  Sc3+  Sc28  1  0.56250000  0.77500000  0.12500000  1.0
  Sc3+  Sc28  1  0.56250000  0.77500000  0.62500000  1.0
  Sc3+  Sc29  1  0.43750000  0.02500000  0.37500000  1.0
  Sc3+  Sc29  1  0.43750000  0.02500000  0.87500000  1.0
  Sc3+  Sc30  1  0.43750000  0.22500000  0.37500000  1.0
  Sc3+  Sc30  1  0.43750000  0.22500000  0.87500000  1.0
  Sc3+  Sc31  1  0.43750000  0.42500000  0.37500000  1.0
  Sc3+  Sc31  1  0.43750000  0.42500000  0.87500000  1.0
  Sc3+  Sc32  1  0.43750000  0.62500000  0.37500000  1.0
  Sc3+  Sc32  1  0.43750000  0.62500000  0.87500000  1.0
  Sc3+  Sc33  1  0.93750000  0.02500000  0.37500000  1.0
  Sc3+  Sc33  1  0.93750000  0.02500000  0.87500000  1.0
  Sc3+  Sc34  1  0.93750000  0.22500000  0.37500000  1.0
  Sc3+  Sc34  1  0.93750000  0.22500000  0.87500000  1.0
  Sc3+  Sc35  1  0.93750000  0.42500000  0.37500000  1.0
  Sc3+  Sc35  1  0.93750000  0.42500000  0.87500000  1.0
  Sc3+  Sc36  1  0.93750000  0.62500000  0.37500000  1.0
  Sc3+  Sc36  1  0.93750000  0.62500000  0.87500000  1.0
  Sc3+  Sc37  1  0.93750000  0.82500000  0.37500000  1.0
  Sc3+  Sc37  1  0.93750000  0.82500000  0.87500000  1.0
  O2-  O1  1  0.32603500  0.18041400  0.15207000  1.0
  O2-  O1  1  0.32603500  0.18041400  0.65207000  1.0
  O2-  O1  1  0.32603500  0.38041400  0.15207000  1.0
  O2-  O1  1  0.32603500  0.38041400  0.65207000  1.0
  O2-  O1  1  0.32603500  0.58041400  0.15207000  1.0
  O2-  O1  1  0.32603500  0.58041400  0.65207000  1.0
  O2-  O1  1  0.32603500  0.78041400  0.15207000  1.0
  O2-  O1  1  0.32603500  0.78041400  0.65207000  1.0
  O2-  O1  1  0.32603500  0.98041400  0.15207000  1.0
  O2-  O1  1  0.32603500  0.98041400  0.65207000  1.0
  O2-  O1  1  0.82603500  0.18041400  0.15207000  1.0
  O2-  O1  1  0.82603500  0.18041400  0.65207000  1.0
  O2-  O1  1  0.82603500  0.38041400  0.15207000  1.0
  O2-  O1  1  0.82603500  0.38041400  0.65207000  1.0
  O2-  O1  1  0.82603500  0.58041400  0.15207000  1.0
  O2-  O1  1  0.82603500  0.58041400  0.65207000  1.0
  O2-  O1  1  0.82603500  0.78041400  0.15207000  1.0
  O2-  O1  1  0.82603500  0.78041400  0.65207000  1.0
  O2-  O1  1  0.82603500  0.98041400  0.15207000  1.0
  O2-  O1  1  0.82603500  0.98041400  0.65207000  1.0
  O2-  O1  1  0.45103500  0.13041400  0.40207000  1.0
  O2-  O1  1  0.45103500  0.13041400  0.90207000  1.0
  O2-  O1  1  0.45103500  0.33041400  0.40207000  1.0
  O2-  O1  1  0.45103500  0.33041400  0.90207000  1.0
  O2-  O1  1  0.45103500  0.53041400  0.40207000  1.0
  O2-  O1  1  0.45103500  0.53041400  0.90207000  1.0
  O2-  O1  1  0.45103500  0.73041400  0.40207000  1.0
  O2-  O1  1  0.45103500  0.73041400  0.90207000  1.0
  O2-  O1  1  0.45103500  0.93041400  0.40207000  1.0
  O2-  O1  1  0.45103500  0.93041400  0.90207000  1.0
  O2-  O1  1  0.95103500  0.13041400  0.40207000  1.0
  O2-  O1  1  0.95103500  0.13041400  0.90207000  1.0
  O2-  O1  1  0.95103500  0.33041400  0.40207000  1.0
  O2-  O1  1  0.95103500  0.33041400  0.90207000  1.0
  O2-  O1  1  0.95103500  0.53041400  0.40207000  1.0
  O2-  O1  1  0.95103500  0.53041400  0.90207000  1.0
  O2-  O1  1  0.95103500  0.73041400  0.40207000  1.0
  O2-  O1  1  0.95103500  0.73041400  0.90207000  1.0
  O2-  O1  1  0.95103500  0.93041400  0.40207000  1.0
  O2-  O1  1  0.95103500  0.93041400  0.90207000  1.0
  O2-  O1  1  0.17396500  0.01958600  0.34793000  1.0
  O2-  O1  1  0.17396500  0.01958600  0.84793000  1.0
  O2-  O1  1  0.17396500  0.21958600  0.34793000  1.0
  O2-  O1  1  0.17396500  0.21958600  0.84793000  1.0
  O2-  O1  1  0.17396500  0.41958600  0.34793000  1.0
  O2-  O1  1  0.17396500  0.41958600  0.84793000  1.0
  O2-  O1  1  0.17396500  0.61958600  0.34793000  1.0
  O2-  O1  1  0.17396500  0.61958600  0.84793000  1.0
  O2-  O1  1  0.17396500  0.81958600  0.34793000  1.0
  O2-  O1  1  0.17396500  0.81958600  0.84793000  1.0
  O2-  O1  1  0.67396500  0.01958600  0.34793000  1.0
  O2-  O1  1  0.67396500  0.01958600  0.84793000  1.0
  O2-  O1  1  0.67396500  0.21958600  0.34793000  1.0
  O2-  O1  1  0.67396500  0.21958600  0.84793000  1.0
  O2-  O1  1  0.67396500  0.41958600  0.34793000  1.0
  O2-  O1  1  0.67396500  0.41958600  0.84793000  1.0
  O2-  O1  1  0.67396500  0.61958600  0.34793000  1.0
  O2-  O1  1  0.67396500  0.61958600  0.84793000  1.0
  O2-  O1  1  0.67396500  0.81958600  0.34793000  1.0
  O2-  O1  1  0.67396500  0.81958600  0.84793000  1.0
  O2-  O1  1  0.04896500  0.06958600  0.09793000  1.0
  O2-  O1  1  0.04896500  0.06958600  0.59793000  1.0
  O2-  O1  1  0.04896500  0.26958600  0.09793000  1.0
  O2-  O1  1  0.04896500  0.26958600  0.59793000  1.0
  O2-  O1  1  0.04896500  0.46958600  0.09793000  1.0
  O2-  O1  1  0.04896500  0.46958600  0.59793000  1.0
  O2-  O1  1  0.04896500  0.66958600  0.09793000  1.0
  O2-  O1  1  0.04896500  0.66958600  0.59793000  1.0
  O2-  O1  1  0.04896500  0.86958600  0.09793000  1.0
  O2-  O1  1  0.04896500  0.86958600  0.59793000  1.0
  O2-  O1  1  0.54896500  0.06958600  0.09793000  1.0
  O2-  O1  1  0.54896500  0.06958600  0.59793000  1.0
  O2-  O1  1  0.54896500  0.26958600  0.09793000  1.0
  O2-  O1  1  0.54896500  0.26958600  0.59793000  1.0
  O2-  O1  1  0.54896500  0.46958600  0.09793000  1.0
  O2-  O1  1  0.54896500  0.46958600  0.59793000  1.0
  O2-  O1  1  0.54896500  0.66958600  0.09793000  1.0
  O2-  O1  1  0.54896500  0.66958600  0.59793000  1.0
  O2-  O1  1  0.54896500  0.86958600  0.09793000  1.0
  O2-  O1  1  0.54896500  0.86958600  0.59793000  1.0
