# generated using pymatgen
data_Li30P5Se4S21Br5
_symmetry_space_group_name_H-M   'P 1'
_cell_length_a   7.09455083
_cell_length_b   35.47275414
_cell_length_c   14.18910166
_cell_angle_alpha   60.00000000
_cell_angle_beta   120.00000000
_cell_angle_gamma   120.00000000
_symmetry_Int_Tables_number   1
_chemical_formula_structural   Li30P5Se4S21Br5
_chemical_formula_sum   'Li60 P10 Se8 S42 Br10'
_cell_volume   2524.99031073
_cell_formula_units_Z   2
loop_
 _symmetry_equiv_pos_site_id
 _symmetry_equiv_pos_as_xyz
  1  'x, y, z'
loop_
 _atom_type_symbol
 _atom_type_oxidation_number
  Li+  1.0
  P5+  5.0
  Se2-  -2.0
  S2-  -2.0
  Br-  -1.0
loop_
 _atom_site_type_symbol
 _atom_site_label
 _atom_site_symmetry_multiplicity
 _atom_site_fract_x
 _atom_site_fract_y
 _atom_site_fract_z
 _atom_site_occupancy
  Li+  Li0  1  0.01700000  0.90340000  0.50850000  1.0
  Li+  Li1  1  0.48300000  0.99660000  0.24150000  1.0
  Li+  Li2  1  0.48300000  0.39660000  0.24150000  1.0
  Li+  Li3  1  0.01700000  0.70340000  0.24150000  1.0
  Li+  Li4  1  0.01700000  0.50340000  0.24150000  1.0
  Li+  Li5  1  0.48300000  0.79660000  0.50850000  1.0
  Li+  Li6  1  0.48300000  0.19660000  0.50850000  1.0
  Li+  Li7  1  0.36326611  0.88213379  0.74025496  1.0
  Li+  Li8  1  0.35976475  0.48631150  0.73890712  1.0
  Li+  Li9  1  0.36234681  0.28305242  0.73513560  1.0
  Li+  Li10  1  0.36070000  0.88218000  0.23745000  1.0
  Li+  Li11  1  0.36307798  0.48292503  0.23561871  1.0
  Li+  Li12  1  0.02810662  0.72898987  0.45888978  1.0
  Li+  Li13  1  0.02510000  0.52786000  0.45545000  1.0
  Li+  Li14  1  0.02312973  0.32430804  0.45329448  1.0
  Li+  Li15  1  0.02487289  0.13198251  0.45554990  1.0
  Li+  Li16  1  0.02510000  0.32786000  0.95545000  1.0
  Li+  Li17  1  0.58910000  0.19498000  0.73745000  1.0
  Li+  Li18  1  0.58910000  0.79498000  0.23745000  1.0
  Li+  Li19  1  0.58910000  0.39498000  0.23745000  1.0
  Li+  Li20  1  0.58910000  0.92786000  0.73745000  1.0
  Li+  Li21  1  0.58910000  0.72786000  0.73745000  1.0
  Li+  Li22  1  0.58910000  0.52786000  0.73745000  1.0
  Li+  Li23  1  0.58910000  0.12786000  0.73745000  1.0
  Li+  Li24  1  0.58910000  0.92786000  0.23745000  1.0
  Li+  Li25  1  0.58910000  0.72786000  0.23745000  1.0
  Li+  Li26  1  0.58910000  0.12786000  0.23745000  1.0
  Li+  Li27  1  0.02510000  0.08218000  0.73745000  1.0
  Li+  Li28  1  0.02510000  0.88218000  0.23745000  1.0
  Li+  Li29  1  0.02510000  0.68218000  0.23745000  1.0
  Li+  Li30  1  0.02573965  0.08098802  0.23266378  1.0
  Li+  Li31  1  0.02510000  0.92786000  0.73745000  1.0
  Li+  Li32  1  0.02510000  0.32786000  0.73745000  1.0
  Li+  Li33  1  0.02237526  0.93336404  0.23922744  1.0
  Li+  Li34  1  0.02493879  0.52433691  0.23764289  1.0
  Li+  Li35  1  0.02510000  0.88218000  0.56965000  1.0
  Li+  Li36  1  0.02719806  0.67994700  0.56453604  1.0
  Li+  Li37  1  0.02510000  0.48218000  0.56965000  1.0
  Li+  Li38  1  0.02510000  0.08218000  0.56965000  1.0
  Li+  Li39  1  0.02510000  0.88218000  0.06965000  1.0
  Li+  Li40  1  0.02450548  0.08081909  0.06976150  1.0
  Li+  Li41  1  0.02510000  0.99498000  0.56965000  1.0
  Li+  Li42  1  0.02510000  0.39498000  0.56965000  1.0
  Li+  Li43  1  0.02510000  0.79498000  0.06965000  1.0
  Li+  Li44  1  0.02510000  0.59498000  0.06965000  1.0
  Li+  Li45  1  0.02510000  0.39498000  0.06965000  1.0
  Li+  Li46  1  0.36070000  0.39498000  0.73745000  1.0
  Li+  Li47  1  0.36070000  0.19498000  0.23745000  1.0
  Li+  Li48  1  0.02510000  0.39498000  0.45545000  1.0
  Li+  Li49  1  0.02510000  0.79498000  0.95545000  1.0
  Li+  Li50  1  0.02510000  0.39498000  0.95545000  1.0
  Li+  Li51  1  0.02510000  0.19498000  0.95545000  1.0
  Li+  Li52  1  0.58910000  0.59498000  0.56965000  1.0
  Li+  Li53  1  0.58910000  0.79498000  0.06965000  1.0
  Li+  Li54  1  0.58910000  0.59498000  0.06965000  1.0
  Li+  Li55  1  0.58910000  0.19498000  0.06965000  1.0
  Li+  Li56  1  0.36289710  0.99175315  0.45336131  1.0
  Li+  Li57  1  0.36070000  0.99498000  0.95545000  1.0
  Li+  Li58  1  0.36070000  0.59498000  0.95545000  1.0
  Li+  Li59  1  0.36070000  0.19498000  0.95545000  1.0
  P5+  P60  1  0.49968514  0.89792482  0.50124546  1.0
  P5+  P61  1  0.50000000  0.70000000  0.50000000  1.0
  P5+  P62  1  0.49912950  0.49983868  0.49483321  1.0
  P5+  P63  1  0.49860502  0.29824463  0.49918627  1.0
  P5+  P64  1  0.50000000  0.10000000  0.50000000  1.0
  P5+  P65  1  0.49952634  0.89650178  0.99979576  1.0
  P5+  P66  1  0.50000000  0.70000000  0.00000000  1.0
  P5+  P67  1  0.50000000  0.50000000  0.00000000  1.0
  P5+  P68  1  0.50000000  0.30000000  0.00000000  1.0
  P5+  P69  1  0.49627229  0.10156433  0.99853081  1.0
  Se2-  Se70  1  0.62159660  0.17295796  0.43920170  1.0
  Se2-  Se71  1  0.13428851  0.48033912  0.43632586  1.0
  Se2-  Se72  1  0.14044576  0.07524612  0.43677993  1.0
  Se2-  Se73  1  0.24888651  0.75395978  0.62302402  1.0
  Se2-  Se74  1  0.25009518  0.54826317  0.63002125  1.0
  Se2-  Se75  1  0.25000000  0.95000000  0.12500000  1.0
  Se2-  Se76  1  0.25000000  0.55000000  0.12500000  1.0
  Se2-  Se77  1  0.25000000  0.15000000  0.12500000  1.0
  S2-  S78  1  0.62318500  0.87727366  0.67775578  1.0
  S2-  S79  1  0.62159660  0.67568068  0.68239490  1.0
  S2-  S80  1  0.62159660  0.47568068  0.68239490  1.0
  S2-  S81  1  0.62159660  0.27568068  0.68239490  1.0
  S2-  S82  1  0.62159660  0.07568068  0.68239490  1.0
  S2-  S83  1  0.62159660  0.87568068  0.18239490  1.0
  S2-  S84  1  0.62159660  0.67568068  0.18239490  1.0
  S2-  S85  1  0.62159660  0.47568068  0.18239490  1.0
  S2-  S86  1  0.62159660  0.27568068  0.18239490  1.0
  S2-  S87  1  0.62159660  0.07568068  0.18239490  1.0
  S2-  S88  1  0.62159660  0.87568068  0.43920170  1.0
  S2-  S89  1  0.62147874  0.67704063  0.43967833  1.0
  S2-  S90  1  0.62159660  0.47568068  0.43920170  1.0
  S2-  S91  1  0.62159660  0.27568068  0.43920170  1.0
  S2-  S92  1  0.62159660  0.07568068  0.43920170  1.0
  S2-  S93  1  0.62159660  0.87568068  0.93920170  1.0
  S2-  S94  1  0.62159660  0.67568068  0.93920170  1.0
  S2-  S95  1  0.62159660  0.47568068  0.93920170  1.0
  S2-  S96  1  0.62159660  0.27568068  0.93920170  1.0
  S2-  S97  1  0.62159660  0.07568068  0.93920170  1.0
  S2-  S98  1  0.62159660  0.97295796  0.43920170  1.0
  S2-  S99  1  0.62159660  0.77295796  0.43920170  1.0
  S2-  S100  1  0.62159660  0.57295796  0.43920170  1.0
  S2-  S101  1  0.62039005  0.37120373  0.43862604  1.0
  S2-  S102  1  0.62159660  0.97295796  0.93920170  1.0
  S2-  S103  1  0.62159660  0.77295796  0.93920170  1.0
  S2-  S104  1  0.62159660  0.57295796  0.93920170  1.0
  S2-  S105  1  0.62159660  0.37295796  0.93920170  1.0
  S2-  S106  1  0.62159660  0.17295796  0.93920170  1.0
  S2-  S107  1  0.13521020  0.87568068  0.43920170  1.0
  S2-  S108  1  0.13521020  0.67568068  0.43920170  1.0
  S2-  S109  1  0.13521020  0.27568068  0.43920170  1.0
  S2-  S110  1  0.13867887  0.87372048  0.94223084  1.0
  S2-  S111  1  0.13458380  0.67455822  0.94063969  1.0
  S2-  S112  1  0.13521020  0.47568068  0.93920170  1.0
  S2-  S113  1  0.13521020  0.27568068  0.93920170  1.0
  S2-  S114  1  0.13521020  0.07568068  0.93920170  1.0
  S2-  S115  1  0.25000000  0.95000000  0.62500000  1.0
  S2-  S116  1  0.25000000  0.35000000  0.62500000  1.0
  S2-  S117  1  0.25000000  0.15000000  0.62500000  1.0
  S2-  S118  1  0.25259157  0.74696686  0.12625597  1.0
  S2-  S119  1  0.25000000  0.35000000  0.12500000  1.0
  Br-  Br120  1  0.00000000  0.00000000  0.75000000  1.0
  Br-  Br121  1  0.00000000  0.80000000  0.75000000  1.0
  Br-  Br122  1  0.00000000  0.60000000  0.75000000  1.0
  Br-  Br123  1  0.00121053  0.40250456  0.75349951  1.0
  Br-  Br124  1  0.00000000  0.20000000  0.75000000  1.0
  Br-  Br125  1  0.00000000  0.00000000  0.25000000  1.0
  Br-  Br126  1  0.00507677  0.79839038  0.24643186  1.0
  Br-  Br127  1  0.99855932  0.60165283  0.24926670  1.0
  Br-  Br128  1  0.00000000  0.40000000  0.25000000  1.0
  Br-  Br129  1  0.00102231  0.19630254  0.25035824  1.0
