# generated using pymatgen
data_Li7P3S11
_symmetry_space_group_name_H-M   'P 1'
_cell_length_a   24.12640000
_cell_length_b   12.53030000
_cell_length_c   12.33974205
_cell_angle_alpha   106.88548416
_cell_angle_beta   77.43753195
_cell_angle_gamma   77.15500000
_symmetry_Int_Tables_number   1
_chemical_formula_structural   Li7P3S11
_chemical_formula_sum   'Li56 P24 S88'
_cell_volume   3317.39043469
_cell_formula_units_Z   8
loop_
 _symmetry_equiv_pos_site_id
 _symmetry_equiv_pos_as_xyz
  1  'x, y, z'
loop_
 _atom_type_symbol
 _atom_type_oxidation_number
  Li+  1.0
  P5+  5.0
  S2-  -2.0
loop_
 _atom_site_type_symbol
 _atom_site_label
 _atom_site_symmetry_multiplicity
 _atom_site_fract_x
 _atom_site_fract_y
 _atom_site_fract_z
 _atom_site_occupancy
  Li+  Li0  1  0.20030000  0.90800000  0.08100000  1.0
  Li+  Li1  1  0.70296548  0.90869754  0.08235650  1.0
  Li+  Li2  1  0.44562875  0.90853022  0.08496820  1.0
  Li+  Li3  1  0.95030000  0.90800000  0.08100000  1.0
  Li+  Li4  1  0.04970000  0.09200000  0.41900000  1.0
  Li+  Li5  1  0.55133892  0.08918491  0.42108220  1.0
  Li+  Li6  1  0.29970000  0.09200000  0.41900000  1.0
  Li+  Li7  1  0.79970000  0.09200000  0.41900000  1.0
  Li+  Li8  1  0.01002500  0.13430000  0.11190000  1.0
  Li+  Li9  1  0.51002500  0.13430000  0.11190000  1.0
  Li+  Li10  1  0.25800059  0.13184240  0.11027374  1.0
  Li+  Li11  1  0.76002500  0.13430000  0.11190000  1.0
  Li+  Li12  1  0.23997500  0.86570000  0.38810000  1.0
  Li+  Li13  1  0.73997500  0.86570000  0.38810000  1.0
  Li+  Li14  1  0.48997500  0.86570000  0.38810000  1.0
  Li+  Li15  1  0.98997500  0.86570000  0.38810000  1.0
  Li+  Li16  1  0.18691279  0.25865644  0.53510613  1.0
  Li+  Li17  1  0.68650000  0.26000000  0.53400000  1.0
  Li+  Li18  1  0.43650000  0.26000000  0.53400000  1.0
  Li+  Li19  1  0.93650000  0.26000000  0.53400000  1.0
  Li+  Li20  1  0.06350000  0.74000000  0.96600000  1.0
  Li+  Li21  1  0.56350000  0.74000000  0.96600000  1.0
  Li+  Li22  1  0.31350000  0.74000000  0.96600000  1.0
  Li+  Li23  1  0.81350000  0.74000000  0.96600000  1.0
  Li+  Li24  1  0.18128411  0.72884198  0.80755328  1.0
  Li+  Li25  1  0.68200000  0.73000000  0.80800000  1.0
  Li+  Li26  1  0.43200000  0.73000000  0.80800000  1.0
  Li+  Li27  1  0.93200000  0.73000000  0.80800000  1.0
  Li+  Li28  1  0.06800000  0.27000000  0.69200000  1.0
  Li+  Li29  1  0.56800000  0.27000000  0.69200000  1.0
  Li+  Li30  1  0.31800000  0.27000000  0.69200000  1.0
  Li+  Li31  1  0.81773126  0.26974924  0.69300793  1.0
  Li+  Li32  1  0.23747500  0.66320000  0.39100000  1.0
  Li+  Li33  1  0.73747500  0.66320000  0.39100000  1.0
  Li+  Li34  1  0.48747500  0.66320000  0.39100000  1.0
  Li+  Li35  1  0.98747500  0.66320000  0.39100000  1.0
  Li+  Li36  1  0.01252500  0.33680000  0.10900000  1.0
  Li+  Li37  1  0.51262147  0.33777492  0.10563604  1.0
  Li+  Li38  1  0.26252500  0.33680000  0.10900000  1.0
  Li+  Li39  1  0.76252500  0.33680000  0.10900000  1.0
  Li+  Li40  1  0.09275000  0.50200000  0.11300000  1.0
  Li+  Li41  1  0.59142955  0.50264188  0.10806261  1.0
  Li+  Li42  1  0.34275000  0.50200000  0.11300000  1.0
  Li+  Li43  1  0.84390713  0.50573182  0.11359817  1.0
  Li+  Li44  1  0.15725000  0.49800000  0.38700000  1.0
  Li+  Li45  1  0.65725000  0.49800000  0.38700000  1.0
  Li+  Li46  1  0.40725000  0.49800000  0.38700000  1.0
  Li+  Li47  1  0.90725000  0.49800000  0.38700000  1.0
  Li+  Li48  1  0.10567893  0.86797409  0.61187158  1.0
  Li+  Li49  1  0.60825000  0.86600000  0.61100000  1.0
  Li+  Li50  1  0.35825000  0.86600000  0.61100000  1.0
  Li+  Li51  1  0.85899258  0.86932063  0.61134895  1.0
  Li+  Li52  1  0.14247999  0.13535651  0.88558524  1.0
  Li+  Li53  1  0.64175000  0.13400000  0.88900000  1.0
  Li+  Li54  1  0.39018803  0.13544326  0.89288609  1.0
  Li+  Li55  1  0.89166946  0.13576930  0.88913557  1.0
  P5+  P56  1  0.20680000  0.53460000  0.95620000  1.0
  P5+  P57  1  0.70680000  0.53460000  0.95620000  1.0
  P5+  P58  1  0.45680000  0.53460000  0.95620000  1.0
  P5+  P59  1  0.95680000  0.53460000  0.95620000  1.0
  P5+  P60  1  0.04320000  0.46540000  0.54380000  1.0
  P5+  P61  1  0.54320000  0.46540000  0.54380000  1.0
  P5+  P62  1  0.29320000  0.46540000  0.54380000  1.0
  P5+  P63  1  0.79320000  0.46540000  0.54380000  1.0
  P5+  P64  1  0.13272500  0.70340000  0.25710000  1.0
  P5+  P65  1  0.63283777  0.70453882  0.25842148  1.0
  P5+  P66  1  0.38272500  0.70340000  0.25710000  1.0
  P5+  P67  1  0.88272500  0.70340000  0.25710000  1.0
  P5+  P68  1  0.11727500  0.29660000  0.24290000  1.0
  P5+  P69  1  0.61727500  0.29660000  0.24290000  1.0
  P5+  P70  1  0.36727500  0.29660000  0.24290000  1.0
  P5+  P71  1  0.86383141  0.29410839  0.24650263  1.0
  P5+  P72  1  0.02745000  0.94150000  0.91000000  1.0
  P5+  P73  1  0.52745000  0.94150000  0.91000000  1.0
  P5+  P74  1  0.27954361  0.94428458  0.90944237  1.0
  P5+  P75  1  0.77745000  0.94150000  0.91000000  1.0
  P5+  P76  1  0.22255000  0.05850000  0.59000000  1.0
  P5+  P77  1  0.72185669  0.06289127  0.58830675  1.0
  P5+  P78  1  0.47255000  0.05850000  0.59000000  1.0
  P5+  P79  1  0.97255000  0.05850000  0.59000000  1.0
  S2-  S80  1  0.02295528  0.38121965  0.88358093  1.0
  S2-  S81  1  0.52422500  0.38050000  0.88940000  1.0
  S2-  S82  1  0.27422500  0.38050000  0.88940000  1.0
  S2-  S83  1  0.77422500  0.38050000  0.88940000  1.0
  S2-  S84  1  0.22577500  0.61950000  0.61060000  1.0
  S2-  S85  1  0.72577500  0.61950000  0.61060000  1.0
  S2-  S86  1  0.47577500  0.61950000  0.61060000  1.0
  S2-  S87  1  0.97577500  0.61950000  0.61060000  1.0
  S2-  S88  1  0.23217500  0.66580000  0.92650000  1.0
  S2-  S89  1  0.73217500  0.66580000  0.92650000  1.0
  S2-  S90  1  0.48217500  0.66580000  0.92650000  1.0
  S2-  S91  1  0.98217500  0.66580000  0.92650000  1.0
  S2-  S92  1  0.01782500  0.33420000  0.57350000  1.0
  S2-  S93  1  0.51782500  0.33420000  0.57350000  1.0
  S2-  S94  1  0.26782500  0.33420000  0.57350000  1.0
  S2-  S95  1  0.77340654  0.33579994  0.57300350  1.0
  S2-  S96  1  0.12933906  0.53361358  0.90961160  1.0
  S2-  S97  1  0.63072500  0.53200000  0.91000000  1.0
  S2-  S98  1  0.38072500  0.53200000  0.91000000  1.0
  S2-  S99  1  0.88072500  0.53200000  0.91000000  1.0
  S2-  S100  1  0.11927500  0.46800000  0.59000000  1.0
  S2-  S101  1  0.61927500  0.46800000  0.59000000  1.0
  S2-  S102  1  0.36927500  0.46800000  0.59000000  1.0
  S2-  S103  1  0.86927500  0.46800000  0.59000000  1.0
  S2-  S104  1  0.19394047  0.54692049  0.12796510  1.0
  S2-  S105  1  0.69432500  0.54710000  0.13240000  1.0
  S2-  S106  1  0.44546163  0.54671896  0.12978518  1.0
  S2-  S107  1  0.94581828  0.54710294  0.13392036  1.0
  S2-  S108  1  0.05567500  0.45290000  0.36760000  1.0
  S2-  S109  1  0.55567500  0.45290000  0.36760000  1.0
  S2-  S110  1  0.30567500  0.45290000  0.36760000  1.0
  S2-  S111  1  0.80567500  0.45290000  0.36760000  1.0
  S2-  S112  1  0.13932500  0.71160000  0.41940000  1.0
  S2-  S113  1  0.63932500  0.71160000  0.41940000  1.0
  S2-  S114  1  0.38932500  0.71160000  0.41940000  1.0
  S2-  S115  1  0.88932500  0.71160000  0.41940000  1.0
  S2-  S116  1  0.11067500  0.28840000  0.08060000  1.0
  S2-  S117  1  0.61067500  0.28840000  0.08060000  1.0
  S2-  S118  1  0.36167272  0.28610639  0.07607863  1.0
  S2-  S119  1  0.86261134  0.29093215  0.07922207  1.0
  S2-  S120  1  0.14604518  0.84653739  0.23812657  1.0
  S2-  S121  1  0.64190298  0.84925094  0.23947679  1.0
  S2-  S122  1  0.39702500  0.84930000  0.24140000  1.0
  S2-  S123  1  0.89702500  0.84930000  0.24140000  1.0
  S2-  S124  1  0.10297500  0.15070000  0.25860000  1.0
  S2-  S125  1  0.60297500  0.15070000  0.25860000  1.0
  S2-  S126  1  0.35297500  0.15070000  0.25860000  1.0
  S2-  S127  1  0.85821083  0.15362219  0.26184745  1.0
  S2-  S128  1  0.05237500  0.69260000  0.24060000  1.0
  S2-  S129  1  0.55237500  0.69260000  0.24060000  1.0
  S2-  S130  1  0.30559565  0.69613857  0.23767354  1.0
  S2-  S131  1  0.80302729  0.69265384  0.23674967  1.0
  S2-  S132  1  0.19762500  0.30740000  0.25940000  1.0
  S2-  S133  1  0.69762500  0.30740000  0.25940000  1.0
  S2-  S134  1  0.44762500  0.30740000  0.25940000  1.0
  S2-  S135  1  0.94762500  0.30740000  0.25940000  1.0
  S2-  S136  1  0.04270000  0.09670000  0.90940000  1.0
  S2-  S137  1  0.54270000  0.09670000  0.90940000  1.0
  S2-  S138  1  0.28795846  0.09568346  0.91035964  1.0
  S2-  S139  1  0.79169264  0.09719301  0.90703760  1.0
  S2-  S140  1  0.21115410  0.89966940  0.59199084  1.0
  S2-  S141  1  0.70730000  0.90330000  0.59060000  1.0
  S2-  S142  1  0.45730000  0.90330000  0.59060000  1.0
  S2-  S143  1  0.95730000  0.90330000  0.59060000  1.0
  S2-  S144  1  0.18862500  0.95380000  0.92210000  1.0
  S2-  S145  1  0.68862500  0.95380000  0.92210000  1.0
  S2-  S146  1  0.43862500  0.95380000  0.92210000  1.0
  S2-  S147  1  0.93862500  0.95380000  0.92210000  1.0
  S2-  S148  1  0.06137500  0.04620000  0.57790000  1.0
  S2-  S149  1  0.56137500  0.04620000  0.57790000  1.0
  S2-  S150  1  0.31137500  0.04620000  0.57790000  1.0
  S2-  S151  1  0.81278768  0.04844222  0.58160585  1.0
  S2-  S152  1  0.04137500  0.93600000  0.07190000  1.0
  S2-  S153  1  0.54137500  0.93600000  0.07190000  1.0
  S2-  S154  1  0.29137500  0.93600000  0.07190000  1.0
  S2-  S155  1  0.78887211  0.93916731  0.07532923  1.0
  S2-  S156  1  0.20862500  0.06400000  0.42810000  1.0
  S2-  S157  1  0.70605140  0.06362868  0.42719703  1.0
  S2-  S158  1  0.45862500  0.06400000  0.42810000  1.0
  S2-  S159  1  0.95862500  0.06400000  0.42810000  1.0
  S2-  S160  1  0.08112010  0.81026267  0.77497611  1.0
  S2-  S161  1  0.58202500  0.81240000  0.77280000  1.0
  S2-  S162  1  0.33202500  0.81240000  0.77280000  1.0
  S2-  S163  1  0.82642346  0.81039267  0.77593689  1.0
  S2-  S164  1  0.16797500  0.18760000  0.72720000  1.0
  S2-  S165  1  0.66747263  0.19007408  0.73042525  1.0
  S2-  S166  1  0.41797500  0.18760000  0.72720000  1.0
  S2-  S167  1  0.91650511  0.18832292  0.72639820  1.0
