# generated using pymatgen
data_Li7P3S11
_symmetry_space_group_name_H-M   'P 1'
_cell_length_a   12.32608595
_cell_length_b   24.09969988
_cell_length_c   12.51643301
_cell_angle_alpha   77.15500000
_cell_angle_beta   73.11451584
_cell_angle_gamma   102.56246805
_symmetry_Int_Tables_number   1
_chemical_formula_structural   Li7P3S11
_chemical_formula_sum   'Li56 P24 S88'
_cell_volume   3306.38878512
_cell_formula_units_Z   8
loop_
 _symmetry_equiv_pos_site_id
 _symmetry_equiv_pos_as_xyz
  1  'x, y, z'
loop_
 _atom_type_symbol
 _atom_type_oxidation_number
  Li+  1.0
  P5+  5.0
  S2-  -2.0
loop_
 _atom_site_type_symbol
 _atom_site_label
 _atom_site_symmetry_multiplicity
 _atom_site_fract_x
 _atom_site_fract_y
 _atom_site_fract_z
 _atom_site_occupancy
  Li+  Li0  1  0.33100000  0.46636667  0.09200000  1.0
  Li+  Li1  1  0.33100000  0.96636667  0.09200000  1.0
  Li+  Li2  1  0.33100000  0.21636667  0.09200000  1.0
  Li+  Li3  1  0.33100000  0.71636667  0.09200000  1.0
  Li+  Li4  1  0.66900000  0.61696667  0.90800000  1.0
  Li+  Li5  1  0.66900000  0.11696667  0.90800000  1.0
  Li+  Li6  1  0.66900000  0.36696667  0.90800000  1.0
  Li+  Li7  1  0.66900000  0.86696667  0.90800000  1.0
  Li+  Li8  1  0.36190000  0.65664167  0.86570000  1.0
  Li+  Li9  1  0.36190000  0.15664167  0.86570000  1.0
  Li+  Li10  1  0.36190000  0.40664167  0.86570000  1.0
  Li+  Li11  1  0.36190000  0.90664167  0.86570000  1.0
  Li+  Li12  1  0.63810000  0.42669167  0.13430000  1.0
  Li+  Li13  1  0.63810000  0.92669167  0.13430000  1.0
  Li+  Li14  1  0.63810000  0.17669167  0.13430000  1.0
  Li+  Li15  1  0.63810000  0.67669167  0.13430000  1.0
  Li+  Li16  1  0.78400000  0.48016667  0.74000000  1.0
  Li+  Li17  1  0.78400000  0.98016667  0.74000000  1.0
  Li+  Li18  1  0.78400000  0.23016667  0.74000000  1.0
  Li+  Li19  1  0.78400000  0.73016667  0.74000000  1.0
  Li+  Li20  1  0.21600000  0.60316667  0.26000000  1.0
  Li+  Li21  1  0.21600000  0.10316667  0.26000000  1.0
  Li+  Li22  1  0.21600000  0.35316667  0.26000000  1.0
  Li+  Li23  1  0.21600000  0.85316667  0.26000000  1.0
  Li+  Li24  1  0.05800000  0.48466667  0.27000000  1.0
  Li+  Li25  1  0.05800000  0.98466667  0.27000000  1.0
  Li+  Li26  1  0.05800000  0.23466667  0.27000000  1.0
  Li+  Li27  1  0.05800000  0.73466667  0.27000000  1.0
  Li+  Li28  1  0.94200000  0.59866667  0.73000000  1.0
  Li+  Li29  1  0.94200000  0.09866667  0.73000000  1.0
  Li+  Li30  1  0.94200000  0.34866667  0.73000000  1.0
  Li+  Li31  1  0.94200000  0.84866667  0.73000000  1.0
  Li+  Li32  1  0.64100000  0.42919167  0.33680000  1.0
  Li+  Li33  1  0.64100000  0.92919167  0.33680000  1.0
  Li+  Li34  1  0.64100000  0.17919167  0.33680000  1.0
  Li+  Li35  1  0.64100000  0.67919167  0.33680000  1.0
  Li+  Li36  1  0.35900000  0.65414167  0.66320000  1.0
  Li+  Li37  1  0.35900000  0.15414167  0.66320000  1.0
  Li+  Li38  1  0.35900000  0.40414167  0.66320000  1.0
  Li+  Li39  1  0.35900000  0.90414167  0.66320000  1.0
  Li+  Li40  1  0.36300000  0.57391667  0.49800000  1.0
  Li+  Li41  1  0.36300000  0.07391667  0.49800000  1.0
  Li+  Li42  1  0.36300000  0.32391667  0.49800000  1.0
  Li+  Li43  1  0.36300000  0.82391667  0.49800000  1.0
  Li+  Li44  1  0.63700000  0.50941667  0.50200000  1.0
  Li+  Li45  1  0.63700000  0.00941667  0.50200000  1.0
  Li+  Li46  1  0.63700000  0.25941667  0.50200000  1.0
  Li+  Li47  1  0.63700000  0.75941667  0.50200000  1.0
  Li+  Li48  1  0.86100000  0.55841667  0.13400000  1.0
  Li+  Li49  1  0.86100000  0.05841667  0.13400000  1.0
  Li+  Li50  1  0.86100000  0.30841667  0.13400000  1.0
  Li+  Li51  1  0.86100000  0.80841667  0.13400000  1.0
  Li+  Li52  1  0.13900000  0.52491667  0.86600000  1.0
  Li+  Li53  1  0.13900000  0.02491667  0.86600000  1.0
  Li+  Li54  1  0.13900000  0.27491667  0.86600000  1.0
  Li+  Li55  1  0.13900000  0.77491667  0.86600000  1.0
  P5+  P56  1  0.20620000  0.45986667  0.46540000  1.0
  P5+  P57  1  0.20620000  0.95986667  0.46540000  1.0
  P5+  P58  1  0.20620000  0.20986667  0.46540000  1.0
  P5+  P59  1  0.20620000  0.70986667  0.46540000  1.0
  P5+  P60  1  0.79380000  0.62346667  0.53460000  1.0
  P5+  P61  1  0.79380000  0.12346667  0.53460000  1.0
  P5+  P62  1  0.79380000  0.37346667  0.53460000  1.0
  P5+  P63  1  0.79380000  0.87346667  0.53460000  1.0
  P5+  P64  1  0.50710000  0.53394167  0.29660000  1.0
  P5+  P65  1  0.50710000  0.03394167  0.29660000  1.0
  P5+  P66  1  0.50710000  0.28394167  0.29660000  1.0
  P5+  P67  1  0.50710000  0.78394167  0.29660000  1.0
  P5+  P68  1  0.49290000  0.54939167  0.70340000  1.0
  P5+  P69  1  0.49290000  0.04939167  0.70340000  1.0
  P5+  P70  1  0.49290000  0.29939167  0.70340000  1.0
  P5+  P71  1  0.49290000  0.79939167  0.70340000  1.0
  P5+  P72  1  0.16000000  0.63921667  0.05850000  1.0
  P5+  P73  1  0.16000000  0.13921667  0.05850000  1.0
  P5+  P74  1  0.16000000  0.38921667  0.05850000  1.0
  P5+  P75  1  0.16000000  0.88921667  0.05850000  1.0
  P5+  P76  1  0.84000000  0.44411667  0.94150000  1.0
  P5+  P77  1  0.84000000  0.94411667  0.94150000  1.0
  P5+  P78  1  0.84000000  0.19411667  0.94150000  1.0
  P5+  P79  1  0.84000000  0.69411667  0.94150000  1.0
  S2-  S80  1  0.13940000  0.64244167  0.61950000  1.0
  S2-  S81  1  0.13940000  0.14244167  0.61950000  1.0
  S2-  S82  1  0.13940000  0.39244167  0.61950000  1.0
  S2-  S83  1  0.13940000  0.89244167  0.61950000  1.0
  S2-  S84  1  0.86060000  0.44089167  0.38050000  1.0
  S2-  S85  1  0.86060000  0.94089167  0.38050000  1.0
  S2-  S86  1  0.86060000  0.19089167  0.38050000  1.0
  S2-  S87  1  0.86060000  0.69089167  0.38050000  1.0
  S2-  S88  1  0.17650000  0.43449167  0.33420000  1.0
  S2-  S89  1  0.17650000  0.93449167  0.33420000  1.0
  S2-  S90  1  0.17650000  0.18449167  0.33420000  1.0
  S2-  S91  1  0.17650000  0.68449167  0.33420000  1.0
  S2-  S92  1  0.82350000  0.64884167  0.66580000  1.0
  S2-  S93  1  0.82350000  0.14884167  0.66580000  1.0
  S2-  S94  1  0.82350000  0.39884167  0.66580000  1.0
  S2-  S95  1  0.82350000  0.89884167  0.66580000  1.0
  S2-  S96  1  0.16000000  0.53594167  0.46800000  1.0
  S2-  S97  1  0.16000000  0.03594167  0.46800000  1.0
  S2-  S98  1  0.16000000  0.28594167  0.46800000  1.0
  S2-  S99  1  0.16000000  0.78594167  0.46800000  1.0
  S2-  S100  1  0.84000000  0.54739167  0.53200000  1.0
  S2-  S101  1  0.84000000  0.04739167  0.53200000  1.0
  S2-  S102  1  0.84000000  0.29739167  0.53200000  1.0
  S2-  S103  1  0.84000000  0.79739167  0.53200000  1.0
  S2-  S104  1  0.38240000  0.47234167  0.45290000  1.0
  S2-  S105  1  0.38240000  0.97234167  0.45290000  1.0
  S2-  S106  1  0.38240000  0.22234167  0.45290000  1.0
  S2-  S107  1  0.38240000  0.72234167  0.45290000  1.0
  S2-  S108  1  0.61760000  0.61099167  0.54710000  1.0
  S2-  S109  1  0.61760000  0.11099167  0.54710000  1.0
  S2-  S110  1  0.61760000  0.36099167  0.54710000  1.0
  S2-  S111  1  0.61760000  0.86099167  0.54710000  1.0
  S2-  S112  1  0.66940000  0.52734167  0.28840000  1.0
  S2-  S113  1  0.66940000  0.02734167  0.28840000  1.0
  S2-  S114  1  0.66940000  0.27734167  0.28840000  1.0
  S2-  S115  1  0.66940000  0.77734167  0.28840000  1.0
  S2-  S116  1  0.33060000  0.55599167  0.71160000  1.0
  S2-  S117  1  0.33060000  0.05599167  0.71160000  1.0
  S2-  S118  1  0.33060000  0.30599167  0.71160000  1.0
  S2-  S119  1  0.33060000  0.80599167  0.71160000  1.0
  S2-  S120  1  0.49140000  0.51964167  0.15070000  1.0
  S2-  S121  1  0.49140000  0.01964167  0.15070000  1.0
  S2-  S122  1  0.49140000  0.26964167  0.15070000  1.0
  S2-  S123  1  0.49140000  0.76964167  0.15070000  1.0
  S2-  S124  1  0.50860000  0.56369167  0.84930000  1.0
  S2-  S125  1  0.50860000  0.06369167  0.84930000  1.0
  S2-  S126  1  0.50860000  0.31369167  0.84930000  1.0
  S2-  S127  1  0.50860000  0.81369167  0.84930000  1.0
  S2-  S128  1  0.49060000  0.61429167  0.30740000  1.0
  S2-  S129  1  0.49060000  0.11429167  0.30740000  1.0
  S2-  S130  1  0.49060000  0.36429167  0.30740000  1.0
  S2-  S131  1  0.49060000  0.86429167  0.30740000  1.0
  S2-  S132  1  0.50940000  0.46904167  0.69260000  1.0
  S2-  S133  1  0.50940000  0.96904167  0.69260000  1.0
  S2-  S134  1  0.50940000  0.21904167  0.69260000  1.0
  S2-  S135  1  0.50940000  0.71904167  0.69260000  1.0
  S2-  S136  1  0.15940000  0.62396667  0.90330000  1.0
  S2-  S137  1  0.15940000  0.12396667  0.90330000  1.0
  S2-  S138  1  0.15940000  0.37396667  0.90330000  1.0
  S2-  S139  1  0.15940000  0.87396667  0.90330000  1.0
  S2-  S140  1  0.84060000  0.45936667  0.09670000  1.0
  S2-  S141  1  0.84060000  0.95936667  0.09670000  1.0
  S2-  S142  1  0.84060000  0.20936667  0.09670000  1.0
  S2-  S143  1  0.84060000  0.70936667  0.09670000  1.0
  S2-  S144  1  0.17210000  0.47804167  0.04620000  1.0
  S2-  S145  1  0.17210000  0.97804167  0.04620000  1.0
  S2-  S146  1  0.17210000  0.22804167  0.04620000  1.0
  S2-  S147  1  0.17210000  0.72804167  0.04620000  1.0
  S2-  S148  1  0.82790000  0.60529167  0.95380000  1.0
  S2-  S149  1  0.82790000  0.10529167  0.95380000  1.0
  S2-  S150  1  0.82790000  0.35529167  0.95380000  1.0
  S2-  S151  1  0.82790000  0.85529167  0.95380000  1.0
  S2-  S152  1  0.32190000  0.62529167  0.06400000  1.0
  S2-  S153  1  0.32190000  0.12529167  0.06400000  1.0
  S2-  S154  1  0.32190000  0.37529167  0.06400000  1.0
  S2-  S155  1  0.32190000  0.87529167  0.06400000  1.0
  S2-  S156  1  0.67810000  0.45804167  0.93600000  1.0
  S2-  S157  1  0.67810000  0.95804167  0.93600000  1.0
  S2-  S158  1  0.67810000  0.20804167  0.93600000  1.0
  S2-  S159  1  0.67810000  0.70804167  0.93600000  1.0
  S2-  S160  1  0.02280000  0.58464167  0.18760000  1.0
  S2-  S161  1  0.02280000  0.08464167  0.18760000  1.0
  S2-  S162  1  0.02280000  0.33464167  0.18760000  1.0
  S2-  S163  1  0.02280000  0.83464167  0.18760000  1.0
  S2-  S164  1  0.97720000  0.49869167  0.81240000  1.0
  S2-  S165  1  0.97720000  0.99869167  0.81240000  1.0
  S2-  S166  1  0.97720000  0.24869167  0.81240000  1.0
  S2-  S167  1  0.97720000  0.74869167  0.81240000  1.0
