# generated using pymatgen
data_Li7P3S11
_symmetry_space_group_name_H-M   'P 1'
_cell_length_a   24.12640000
_cell_length_b   12.33974205
_cell_length_c   12.53030000
_cell_angle_alpha   106.88548416
_cell_angle_beta   102.84500000
_cell_angle_gamma   102.56246805
_symmetry_Int_Tables_number   1
_chemical_formula_structural   Li7P3S11
_chemical_formula_sum   'Li56 P24 S88'
_cell_volume   3317.39043469
_cell_formula_units_Z   8
loop_
 _symmetry_equiv_pos_site_id
 _symmetry_equiv_pos_as_xyz
  1  'x, y, z'
loop_
 _atom_type_symbol
 _atom_type_oxidation_number
  Li+  1.0
  P5+  5.0
  S2-  -2.0
loop_
 _atom_site_type_symbol
 _atom_site_label
 _atom_site_symmetry_multiplicity
 _atom_site_fract_x
 _atom_site_fract_y
 _atom_site_fract_z
 _atom_site_occupancy
  Li+  Li1  1  0.20030000  0.66900000  0.09200000  1.0
  Li+  Li1  1  0.70030000  0.66900000  0.09200000  1.0
  Li+  Li1  1  0.45030000  0.66900000  0.09200000  1.0
  Li+  Li1  1  0.95030000  0.66900000  0.09200000  1.0
  Li+  Li1  1  0.04970000  0.33100000  0.90800000  1.0
  Li+  Li1  1  0.54970000  0.33100000  0.90800000  1.0
  Li+  Li1  1  0.29970000  0.33100000  0.90800000  1.0
  Li+  Li1  1  0.79970000  0.33100000  0.90800000  1.0
  Li+  Li2  1  0.01002500  0.63810000  0.86570000  1.0
  Li+  Li2  1  0.51002500  0.63810000  0.86570000  1.0
  Li+  Li2  1  0.26002500  0.63810000  0.86570000  1.0
  Li+  Li2  1  0.76002500  0.63810000  0.86570000  1.0
  Li+  Li2  1  0.23997500  0.36190000  0.13430000  1.0
  Li+  Li2  1  0.73997500  0.36190000  0.13430000  1.0
  Li+  Li2  1  0.48997500  0.36190000  0.13430000  1.0
  Li+  Li2  1  0.98997500  0.36190000  0.13430000  1.0
  Li+  Li3  1  0.18650000  0.21600000  0.74000000  1.0
  Li+  Li3  1  0.68650000  0.21600000  0.74000000  1.0
  Li+  Li3  1  0.43650000  0.21600000  0.74000000  1.0
  Li+  Li3  1  0.93650000  0.21600000  0.74000000  1.0
  Li+  Li3  1  0.06350000  0.78400000  0.26000000  1.0
  Li+  Li3  1  0.56350000  0.78400000  0.26000000  1.0
  Li+  Li3  1  0.31350000  0.78400000  0.26000000  1.0
  Li+  Li3  1  0.81350000  0.78400000  0.26000000  1.0
  Li+  Li4  1  0.18200000  0.94200000  0.27000000  1.0
  Li+  Li4  1  0.68200000  0.94200000  0.27000000  1.0
  Li+  Li4  1  0.43200000  0.94200000  0.27000000  1.0
  Li+  Li4  1  0.93200000  0.94200000  0.27000000  1.0
  Li+  Li4  1  0.06800000  0.05800000  0.73000000  1.0
  Li+  Li4  1  0.56800000  0.05800000  0.73000000  1.0
  Li+  Li4  1  0.31800000  0.05800000  0.73000000  1.0
  Li+  Li4  1  0.81800000  0.05800000  0.73000000  1.0
  Li+  Li5  1  0.23747500  0.35900000  0.33680000  1.0
  Li+  Li5  1  0.73747500  0.35900000  0.33680000  1.0
  Li+  Li5  1  0.48747500  0.35900000  0.33680000  1.0
  Li+  Li5  1  0.98747500  0.35900000  0.33680000  1.0
  Li+  Li5  1  0.01252500  0.64100000  0.66320000  1.0
  Li+  Li5  1  0.51252500  0.64100000  0.66320000  1.0
  Li+  Li5  1  0.26252500  0.64100000  0.66320000  1.0
  Li+  Li5  1  0.76252500  0.64100000  0.66320000  1.0
  Li+  Li6  1  0.09275000  0.63700000  0.49800000  1.0
  Li+  Li6  1  0.59275000  0.63700000  0.49800000  1.0
  Li+  Li6  1  0.34275000  0.63700000  0.49800000  1.0
  Li+  Li6  1  0.84275000  0.63700000  0.49800000  1.0
  Li+  Li6  1  0.15725000  0.36300000  0.50200000  1.0
  Li+  Li6  1  0.65725000  0.36300000  0.50200000  1.0
  Li+  Li6  1  0.40725000  0.36300000  0.50200000  1.0
  Li+  Li6  1  0.90725000  0.36300000  0.50200000  1.0
  Li+  Li7  1  0.10825000  0.13900000  0.13400000  1.0
  Li+  Li7  1  0.60825000  0.13900000  0.13400000  1.0
  Li+  Li7  1  0.35825000  0.13900000  0.13400000  1.0
  Li+  Li7  1  0.85825000  0.13900000  0.13400000  1.0
  Li+  Li7  1  0.14175000  0.86100000  0.86600000  1.0
  Li+  Li7  1  0.64175000  0.86100000  0.86600000  1.0
  Li+  Li7  1  0.39175000  0.86100000  0.86600000  1.0
  Li+  Li7  1  0.89175000  0.86100000  0.86600000  1.0
  P5+  P1  1  0.20680000  0.79380000  0.46540000  1.0
  P5+  P1  1  0.70680000  0.79380000  0.46540000  1.0
  P5+  P1  1  0.45680000  0.79380000  0.46540000  1.0
  P5+  P1  1  0.95680000  0.79380000  0.46540000  1.0
  P5+  P1  1  0.04320000  0.20620000  0.53460000  1.0
  P5+  P1  1  0.54320000  0.20620000  0.53460000  1.0
  P5+  P1  1  0.29320000  0.20620000  0.53460000  1.0
  P5+  P1  1  0.79320000  0.20620000  0.53460000  1.0
  P5+  P2  1  0.13272500  0.49290000  0.29660000  1.0
  P5+  P2  1  0.63272500  0.49290000  0.29660000  1.0
  P5+  P2  1  0.38272500  0.49290000  0.29660000  1.0
  P5+  P2  1  0.88272500  0.49290000  0.29660000  1.0
  P5+  P2  1  0.11727500  0.50710000  0.70340000  1.0
  P5+  P2  1  0.61727500  0.50710000  0.70340000  1.0
  P5+  P2  1  0.36727500  0.50710000  0.70340000  1.0
  P5+  P2  1  0.86727500  0.50710000  0.70340000  1.0
  P5+  P3  1  0.02745000  0.84000000  0.05850000  1.0
  P5+  P3  1  0.52745000  0.84000000  0.05850000  1.0
  P5+  P3  1  0.27745000  0.84000000  0.05850000  1.0
  P5+  P3  1  0.77745000  0.84000000  0.05850000  1.0
  P5+  P3  1  0.22255000  0.16000000  0.94150000  1.0
  P5+  P3  1  0.72255000  0.16000000  0.94150000  1.0
  P5+  P3  1  0.47255000  0.16000000  0.94150000  1.0
  P5+  P3  1  0.97255000  0.16000000  0.94150000  1.0
  S2-  S1  1  0.02422500  0.86060000  0.61950000  1.0
  S2-  S1  1  0.52422500  0.86060000  0.61950000  1.0
  S2-  S1  1  0.27422500  0.86060000  0.61950000  1.0
  S2-  S1  1  0.77422500  0.86060000  0.61950000  1.0
  S2-  S1  1  0.22577500  0.13940000  0.38050000  1.0
  S2-  S1  1  0.72577500  0.13940000  0.38050000  1.0
  S2-  S1  1  0.47577500  0.13940000  0.38050000  1.0
  S2-  S1  1  0.97577500  0.13940000  0.38050000  1.0
  S2-  S2  1  0.23217500  0.82350000  0.33420000  1.0
  S2-  S2  1  0.73217500  0.82350000  0.33420000  1.0
  S2-  S2  1  0.48217500  0.82350000  0.33420000  1.0
  S2-  S2  1  0.98217500  0.82350000  0.33420000  1.0
  S2-  S2  1  0.01782500  0.17650000  0.66580000  1.0
  S2-  S2  1  0.51782500  0.17650000  0.66580000  1.0
  S2-  S2  1  0.26782500  0.17650000  0.66580000  1.0
  S2-  S2  1  0.76782500  0.17650000  0.66580000  1.0
  S2-  S3  1  0.13072500  0.84000000  0.46800000  1.0
  S2-  S3  1  0.63072500  0.84000000  0.46800000  1.0
  S2-  S3  1  0.38072500  0.84000000  0.46800000  1.0
  S2-  S3  1  0.88072500  0.84000000  0.46800000  1.0
  S2-  S3  1  0.11927500  0.16000000  0.53200000  1.0
  S2-  S3  1  0.61927500  0.16000000  0.53200000  1.0
  S2-  S3  1  0.36927500  0.16000000  0.53200000  1.0
  S2-  S3  1  0.86927500  0.16000000  0.53200000  1.0
  S2-  S4  1  0.19432500  0.61760000  0.45290000  1.0
  S2-  S4  1  0.69432500  0.61760000  0.45290000  1.0
  S2-  S4  1  0.44432500  0.61760000  0.45290000  1.0
  S2-  S4  1  0.94432500  0.61760000  0.45290000  1.0
  S2-  S4  1  0.05567500  0.38240000  0.54710000  1.0
  S2-  S4  1  0.55567500  0.38240000  0.54710000  1.0
  S2-  S4  1  0.30567500  0.38240000  0.54710000  1.0
  S2-  S4  1  0.80567500  0.38240000  0.54710000  1.0
  S2-  S5  1  0.13932500  0.33060000  0.28840000  1.0
  S2-  S5  1  0.63932500  0.33060000  0.28840000  1.0
  S2-  S5  1  0.38932500  0.33060000  0.28840000  1.0
  S2-  S5  1  0.88932500  0.33060000  0.28840000  1.0
  S2-  S5  1  0.11067500  0.66940000  0.71160000  1.0
  S2-  S5  1  0.61067500  0.66940000  0.71160000  1.0
  S2-  S5  1  0.36067500  0.66940000  0.71160000  1.0
  S2-  S5  1  0.86067500  0.66940000  0.71160000  1.0
  S2-  S6  1  0.14702500  0.50860000  0.15070000  1.0
  S2-  S6  1  0.64702500  0.50860000  0.15070000  1.0
  S2-  S6  1  0.39702500  0.50860000  0.15070000  1.0
  S2-  S6  1  0.89702500  0.50860000  0.15070000  1.0
  S2-  S6  1  0.10297500  0.49140000  0.84930000  1.0
  S2-  S6  1  0.60297500  0.49140000  0.84930000  1.0
  S2-  S6  1  0.35297500  0.49140000  0.84930000  1.0
  S2-  S6  1  0.85297500  0.49140000  0.84930000  1.0
  S2-  S7  1  0.05237500  0.50940000  0.30740000  1.0
  S2-  S7  1  0.55237500  0.50940000  0.30740000  1.0
  S2-  S7  1  0.30237500  0.50940000  0.30740000  1.0
  S2-  S7  1  0.80237500  0.50940000  0.30740000  1.0
  S2-  S7  1  0.19762500  0.49060000  0.69260000  1.0
  S2-  S7  1  0.69762500  0.49060000  0.69260000  1.0
  S2-  S7  1  0.44762500  0.49060000  0.69260000  1.0
  S2-  S7  1  0.94762500  0.49060000  0.69260000  1.0
  S2-  S8  1  0.04270000  0.84060000  0.90330000  1.0
  S2-  S8  1  0.54270000  0.84060000  0.90330000  1.0
  S2-  S8  1  0.29270000  0.84060000  0.90330000  1.0
  S2-  S8  1  0.79270000  0.84060000  0.90330000  1.0
  S2-  S8  1  0.20730000  0.15940000  0.09670000  1.0
  S2-  S8  1  0.70730000  0.15940000  0.09670000  1.0
  S2-  S8  1  0.45730000  0.15940000  0.09670000  1.0
  S2-  S8  1  0.95730000  0.15940000  0.09670000  1.0
  S2-  S9  1  0.18862500  0.82790000  0.04620000  1.0
  S2-  S9  1  0.68862500  0.82790000  0.04620000  1.0
  S2-  S9  1  0.43862500  0.82790000  0.04620000  1.0
  S2-  S9  1  0.93862500  0.82790000  0.04620000  1.0
  S2-  S9  1  0.06137500  0.17210000  0.95380000  1.0
  S2-  S9  1  0.56137500  0.17210000  0.95380000  1.0
  S2-  S9  1  0.31137500  0.17210000  0.95380000  1.0
  S2-  S9  1  0.81137500  0.17210000  0.95380000  1.0
  S2-  S10  1  0.04137500  0.67810000  0.06400000  1.0
  S2-  S10  1  0.54137500  0.67810000  0.06400000  1.0
  S2-  S10  1  0.29137500  0.67810000  0.06400000  1.0
  S2-  S10  1  0.79137500  0.67810000  0.06400000  1.0
  S2-  S10  1  0.20862500  0.32190000  0.93600000  1.0
  S2-  S10  1  0.70862500  0.32190000  0.93600000  1.0
  S2-  S10  1  0.45862500  0.32190000  0.93600000  1.0
  S2-  S10  1  0.95862500  0.32190000  0.93600000  1.0
  S2-  S11  1  0.08202500  0.97720000  0.18760000  1.0
  S2-  S11  1  0.58202500  0.97720000  0.18760000  1.0
  S2-  S11  1  0.33202500  0.97720000  0.18760000  1.0
  S2-  S11  1  0.83202500  0.97720000  0.18760000  1.0
  S2-  S11  1  0.16797500  0.02280000  0.81240000  1.0
  S2-  S11  1  0.66797500  0.02280000  0.81240000  1.0
  S2-  S11  1  0.41797500  0.02280000  0.81240000  1.0
  S2-  S11  1  0.91797500  0.02280000  0.81240000  1.0
