# generated using pymatgen
data_Li67Si7Sb3(S5I)10
_symmetry_space_group_name_H-M   'P 1'
_cell_length_a   36.52206525
_cell_length_b   7.30441305
_cell_length_c   14.60882610
_cell_angle_alpha   60.00000000
_cell_angle_beta   60.00000000
_cell_angle_gamma   60.00000000
_symmetry_Int_Tables_number   1
_chemical_formula_structural   Li67Si7Sb3(S5I)10
_chemical_formula_sum   'Li67 Si7 Sb3 S50 I10'
_cell_volume   2755.75734289
_cell_formula_units_Z   1
loop_
 _symmetry_equiv_pos_site_id
 _symmetry_equiv_pos_as_xyz
  1  'x, y, z'
loop_
 _atom_type_symbol
 _atom_type_oxidation_number
  Li+  1.0
  Si4+  4.0
  Sb5+  5.0
  S2-  -2.0
  I-  -1.0
loop_
 _atom_site_type_symbol
 _atom_site_label
 _atom_site_symmetry_multiplicity
 _atom_site_fract_x
 _atom_site_fract_y
 _atom_site_fract_z
 _atom_site_occupancy
  Li+  Li0  1  0.19622000  0.46690000  0.49055000  1.0
  Li+  Li1  1  0.19622000  0.46690000  0.99055000  1.0
  Li+  Li2  1  0.39622000  0.46690000  0.49055000  1.0
  Li+  Li3  1  0.39622000  0.46690000  0.99055000  1.0
  Li+  Li4  1  0.59622000  0.46690000  0.99055000  1.0
  Li+  Li5  1  0.79622000  0.46690000  0.99055000  1.0
  Li+  Li6  1  0.99622000  0.46690000  0.49055000  1.0
  Li+  Li7  1  0.11418000  0.98110000  0.23345000  1.0
  Li+  Li8  1  0.11418000  0.98110000  0.73345000  1.0
  Li+  Li9  1  0.31418000  0.98110000  0.23345000  1.0
  Li+  Li10  1  0.71418000  0.98110000  0.23345000  1.0
  Li+  Li11  1  0.19622000  0.57090000  0.99055000  1.0
  Li+  Li12  1  0.39622000  0.57090000  0.49055000  1.0
  Li+  Li13  1  0.39622000  0.57090000  0.99055000  1.0
  Li+  Li14  1  0.59622000  0.57090000  0.49055000  1.0
  Li+  Li15  1  0.59622000  0.57090000  0.99055000  1.0
  Li+  Li16  1  0.79622000  0.57090000  0.99055000  1.0
  Li+  Li17  1  0.29338000  0.98110000  0.78545000  1.0
  Li+  Li18  1  0.49338000  0.98110000  0.78545000  1.0
  Li+  Li19  1  0.69338000  0.98110000  0.78545000  1.0
  Li+  Li20  1  0.89338000  0.98110000  0.28545000  1.0
  Li+  Li21  1  0.89338000  0.98110000  0.78545000  1.0
  Li+  Li22  1  0.29338000  0.98110000  0.49055000  1.0
  Li+  Li23  1  0.69338000  0.98110000  0.49055000  1.0
  Li+  Li24  1  0.69338000  0.98110000  0.99055000  1.0
  Li+  Li25  1  0.19622000  0.46690000  0.78545000  1.0
  Li+  Li26  1  0.39622000  0.46690000  0.28545000  1.0
  Li+  Li27  1  0.39622000  0.46690000  0.78545000  1.0
  Li+  Li28  1  0.59622000  0.46690000  0.28545000  1.0
  Li+  Li29  1  0.59622000  0.46690000  0.78545000  1.0
  Li+  Li30  1  0.79622000  0.46690000  0.28545000  1.0
  Li+  Li31  1  0.79622000  0.46690000  0.78545000  1.0
  Li+  Li32  1  0.99622000  0.46690000  0.28545000  1.0
  Li+  Li33  1  0.99622000  0.46690000  0.78545000  1.0
  Li+  Li34  1  0.11418000  0.98110000  0.49055000  1.0
  Li+  Li35  1  0.11418000  0.98110000  0.99055000  1.0
  Li+  Li36  1  0.31418000  0.98110000  0.49055000  1.0
  Li+  Li37  1  0.31418000  0.98110000  0.99055000  1.0
  Li+  Li38  1  0.71418000  0.98110000  0.49055000  1.0
  Li+  Li39  1  0.91418000  0.98110000  0.99055000  1.0
  Li+  Li40  1  0.19622000  0.57090000  0.23345000  1.0
  Li+  Li41  1  0.19622000  0.57090000  0.73345000  1.0
  Li+  Li42  1  0.39622000  0.57090000  0.23345000  1.0
  Li+  Li43  1  0.39622000  0.57090000  0.73345000  1.0
  Li+  Li44  1  0.59622000  0.57090000  0.23345000  1.0
  Li+  Li45  1  0.39622000  0.98110000  0.23345000  1.0
  Li+  Li46  1  0.39622000  0.98110000  0.73345000  1.0
  Li+  Li47  1  0.59622000  0.98110000  0.73345000  1.0
  Li+  Li48  1  0.99622000  0.98110000  0.23345000  1.0
  Li+  Li49  1  0.99622000  0.98110000  0.73345000  1.0
  Li+  Li50  1  0.29338000  0.57090000  0.49055000  1.0
  Li+  Li51  1  0.29338000  0.57090000  0.99055000  1.0
  Li+  Li52  1  0.49338000  0.57090000  0.99055000  1.0
  Li+  Li53  1  0.69338000  0.57090000  0.99055000  1.0
  Li+  Li54  1  0.89338000  0.57090000  0.49055000  1.0
  Li+  Li55  1  0.89338000  0.57090000  0.99055000  1.0
  Li+  Li56  1  0.19622000  0.98110000  0.28545000  1.0
  Li+  Li57  1  0.19622000  0.98110000  0.78545000  1.0
  Li+  Li58  1  0.59622000  0.98110000  0.28545000  1.0
  Li+  Li59  1  0.79622000  0.98110000  0.28545000  1.0
  Li+  Li60  1  0.79622000  0.98110000  0.78545000  1.0
  Li+  Li61  1  0.99622000  0.98110000  0.28545000  1.0
  Li+  Li62  1  0.99622000  0.98110000  0.78545000  1.0
  Li+  Li63  1  0.11418000  0.46690000  0.49055000  1.0
  Li+  Li64  1  0.11418000  0.46690000  0.99055000  1.0
  Li+  Li65  1  0.91418000  0.46690000  0.49055000  1.0
  Li+  Li66  1  0.91418000  0.46690000  0.99055000  1.0
  Si4+  Si67  1  0.10000000  0.50000000  0.25000000  1.0
  Si4+  Si68  1  0.10000000  0.50000000  0.75000000  1.0
  Si4+  Si69  1  0.30000000  0.50000000  0.25000000  1.0
  Si4+  Si70  1  0.30000000  0.50000000  0.75000000  1.0
  Si4+  Si71  1  0.70000000  0.50000000  0.75000000  1.0
  Si4+  Si72  1  0.90000000  0.50000000  0.25000000  1.0
  Si4+  Si73  1  0.90000000  0.50000000  0.75000000  1.0
  Sb5+  Sb74  1  0.50000000  0.50000000  0.25000000  1.0
  Sb5+  Sb75  1  0.50000000  0.50000000  0.75000000  1.0
  Sb5+  Sb76  1  0.70000000  0.50000000  0.25000000  1.0
  S2-  S1  1  0.15000000  0.75000000  0.37500000  1.0
  S2-  S1  1  0.15000000  0.75000000  0.87500000  1.0
  S2-  S1  1  0.35000000  0.75000000  0.37500000  1.0
  S2-  S1  1  0.35000000  0.75000000  0.87500000  1.0
  S2-  S1  1  0.55000000  0.75000000  0.37500000  1.0
  S2-  S1  1  0.55000000  0.75000000  0.87500000  1.0
  S2-  S1  1  0.75000000  0.75000000  0.37500000  1.0
  S2-  S1  1  0.75000000  0.75000000  0.87500000  1.0
  S2-  S1  1  0.95000000  0.75000000  0.37500000  1.0
  S2-  S1  1  0.95000000  0.75000000  0.87500000  1.0
  S2-  S2  1  0.17375200  0.37708000  0.18854000  1.0
  S2-  S2  1  0.17375200  0.37708000  0.68854000  1.0
  S2-  S2  1  0.37375200  0.37708000  0.18854000  1.0
  S2-  S2  1  0.37375200  0.37708000  0.68854000  1.0
  S2-  S2  1  0.57375200  0.37708000  0.18854000  1.0
  S2-  S2  1  0.57375200  0.37708000  0.68854000  1.0
  S2-  S2  1  0.77375200  0.37708000  0.18854000  1.0
  S2-  S2  1  0.77375200  0.37708000  0.68854000  1.0
  S2-  S2  1  0.97375200  0.37708000  0.18854000  1.0
  S2-  S2  1  0.97375200  0.37708000  0.68854000  1.0
  S2-  S2  1  0.07541600  0.37708000  0.18854000  1.0
  S2-  S2  1  0.07541600  0.37708000  0.68854000  1.0
  S2-  S2  1  0.27541600  0.37708000  0.18854000  1.0
  S2-  S2  1  0.27541600  0.37708000  0.68854000  1.0
  S2-  S2  1  0.47541600  0.37708000  0.18854000  1.0
  S2-  S2  1  0.47541600  0.37708000  0.68854000  1.0
  S2-  S2  1  0.67541600  0.37708000  0.18854000  1.0
  S2-  S2  1  0.67541600  0.37708000  0.68854000  1.0
  S2-  S2  1  0.87541600  0.37708000  0.18854000  1.0
  S2-  S2  1  0.87541600  0.37708000  0.68854000  1.0
  S2-  S2  1  0.07541600  0.37708000  0.43438000  1.0
  S2-  S2  1  0.07541600  0.37708000  0.93438000  1.0
  S2-  S2  1  0.27541600  0.37708000  0.43438000  1.0
  S2-  S2  1  0.27541600  0.37708000  0.93438000  1.0
  S2-  S2  1  0.47541600  0.37708000  0.43438000  1.0
  S2-  S2  1  0.47541600  0.37708000  0.93438000  1.0
  S2-  S2  1  0.67541600  0.37708000  0.43438000  1.0
  S2-  S2  1  0.67541600  0.37708000  0.93438000  1.0
  S2-  S2  1  0.87541600  0.37708000  0.43438000  1.0
  S2-  S2  1  0.87541600  0.37708000  0.93438000  1.0
  S2-  S2  1  0.07541600  0.86876000  0.18854000  1.0
  S2-  S2  1  0.07541600  0.86876000  0.68854000  1.0
  S2-  S2  1  0.27541600  0.86876000  0.18854000  1.0
  S2-  S2  1  0.27541600  0.86876000  0.68854000  1.0
  S2-  S2  1  0.47541600  0.86876000  0.18854000  1.0
  S2-  S2  1  0.47541600  0.86876000  0.68854000  1.0
  S2-  S2  1  0.67541600  0.86876000  0.18854000  1.0
  S2-  S2  1  0.67541600  0.86876000  0.68854000  1.0
  S2-  S2  1  0.87541600  0.86876000  0.18854000  1.0
  S2-  S2  1  0.87541600  0.86876000  0.68854000  1.0
  I-  I127  1  0.00000000  0.00000000  0.00000000  1.0
  I-  I128  1  0.00000000  0.00000000  0.50000000  1.0
  I-  I129  1  0.20000000  0.00000000  0.00000000  1.0
  I-  I130  1  0.20000000  0.00000000  0.50000000  1.0
  I-  I131  1  0.40000000  0.00000000  0.00000000  1.0
  I-  I132  1  0.40000000  0.00000000  0.50000000  1.0
  I-  I133  1  0.60000000  0.00000000  1.00000000  1.0
  I-  I134  1  0.60000000  0.00000000  0.50000000  1.0
  I-  I135  1  0.80000000  0.00000000  1.00000000  1.0
  I-  I136  1  0.80000000  0.00000000  0.50000000  1.0
