# generated using pymatgen
data_Sr3Li4Nb6O20
_symmetry_space_group_name_H-M   'P 1'
_cell_length_a   7.90600000
_cell_length_b   7.90600000
_cell_length_c   26.04100000
_cell_angle_alpha   90.00000000
_cell_angle_beta   90.00000000
_cell_angle_gamma   90.00000000
_symmetry_Int_Tables_number   1
_chemical_formula_structural   Sr3Li4Nb6O20
_chemical_formula_sum   'Sr12 Li16 Nb24 O80'
_cell_volume   1627.68843428
_cell_formula_units_Z   4
loop_
 _symmetry_equiv_pos_site_id
 _symmetry_equiv_pos_as_xyz
  1  'x, y, z'
loop_
 _atom_type_symbol
 _atom_type_oxidation_number
  Sr2+  2.0
  Li+  1.0
  Nb5+  5.0
  O2-  -2.0
loop_
 _atom_site_type_symbol
 _atom_site_label
 _atom_site_symmetry_multiplicity
 _atom_site_fract_x
 _atom_site_fract_y
 _atom_site_fract_z
 _atom_site_occupancy
  Sr2+  Sr0  1  0.25000000  0.25000000  0.91986000  1.0
  Sr2+  Sr1  1  0.25000000  0.75000000  0.91986000  1.0
  Sr2+  Sr2  1  0.75000000  0.25000000  0.91986000  1.0
  Sr2+  Sr3  1  0.25000000  0.25000000  0.08014000  1.0
  Sr2+  Sr4  1  0.75000000  0.25000000  0.08014000  1.0
  Sr2+  Sr5  1  0.75000000  0.75000000  0.08014000  1.0
  Sr2+  Sr6  1  0.00000000  0.50000000  0.41986000  1.0
  Sr2+  Sr7  1  0.50000000  0.00000000  0.41986000  1.0
  Sr2+  Sr8  1  0.50000000  0.50000000  0.41986000  1.0
  Sr2+  Sr9  1  0.00000000  0.00000000  0.58014000  1.0
  Sr2+  Sr10  1  0.00000000  0.50000000  0.58014000  1.0
  Sr2+  Sr11  1  0.50000000  0.00000000  0.58014000  1.0
  Li+  Li1  1  0.25000000  0.00000000  0.25000000  1.0
  Li+  Li1  1  0.25000000  0.50000000  0.25000000  1.0
  Li+  Li1  1  0.75000000  0.00000000  0.25000000  1.0
  Li+  Li1  1  0.75000000  0.50000000  0.25000000  1.0
  Li+  Li1  1  0.00000000  0.25000000  0.25000000  1.0
  Li+  Li1  1  0.00000000  0.75000000  0.25000000  1.0
  Li+  Li1  1  0.50000000  0.25000000  0.25000000  1.0
  Li+  Li1  1  0.50000000  0.75000000  0.25000000  1.0
  Li+  Li1  1  0.25000000  0.00000000  0.75000000  1.0
  Li+  Li1  1  0.25000000  0.50000000  0.75000000  1.0
  Li+  Li1  1  0.75000000  0.00000000  0.75000000  1.0
  Li+  Li1  1  0.75000000  0.50000000  0.75000000  1.0
  Li+  Li1  1  0.00000000  0.25000000  0.75000000  1.0
  Li+  Li1  1  0.00000000  0.75000000  0.75000000  1.0
  Li+  Li1  1  0.50000000  0.25000000  0.75000000  1.0
  Li+  Li1  1  0.50000000  0.75000000  0.75000000  1.0
  Nb5+  Nb1  1  0.00000000  0.00000000  0.00000000  1.0
  Nb5+  Nb1  1  0.00000000  0.50000000  0.00000000  1.0
  Nb5+  Nb1  1  0.50000000  0.00000000  0.00000000  1.0
  Nb5+  Nb1  1  0.50000000  0.50000000  0.00000000  1.0
  Nb5+  Nb1  1  0.25000000  0.25000000  0.50000000  1.0
  Nb5+  Nb1  1  0.25000000  0.75000000  0.50000000  1.0
  Nb5+  Nb1  1  0.75000000  0.25000000  0.50000000  1.0
  Nb5+  Nb1  1  0.75000000  0.75000000  0.50000000  1.0
  Nb5+  Nb2  1  0.00000000  0.00000000  0.84260000  1.0
  Nb5+  Nb2  1  0.00000000  0.50000000  0.84260000  1.0
  Nb5+  Nb2  1  0.50000000  0.00000000  0.84260000  1.0
  Nb5+  Nb2  1  0.50000000  0.50000000  0.84260000  1.0
  Nb5+  Nb2  1  0.00000000  0.00000000  0.15740000  1.0
  Nb5+  Nb2  1  0.00000000  0.50000000  0.15740000  1.0
  Nb5+  Nb2  1  0.50000000  0.00000000  0.15740000  1.0
  Nb5+  Nb2  1  0.50000000  0.50000000  0.15740000  1.0
  Nb5+  Nb2  1  0.25000000  0.25000000  0.34260000  1.0
  Nb5+  Nb2  1  0.25000000  0.75000000  0.34260000  1.0
  Nb5+  Nb2  1  0.75000000  0.25000000  0.34260000  1.0
  Nb5+  Nb2  1  0.75000000  0.75000000  0.34260000  1.0
  Nb5+  Nb2  1  0.25000000  0.25000000  0.65740000  1.0
  Nb5+  Nb2  1  0.25000000  0.75000000  0.65740000  1.0
  Nb5+  Nb2  1  0.75000000  0.25000000  0.65740000  1.0
  Nb5+  Nb2  1  0.75000000  0.75000000  0.65740000  1.0
  O2-  O1  1  0.00000000  0.00000000  0.77220000  1.0
  O2-  O1  1  0.00000000  0.50000000  0.77220000  1.0
  O2-  O1  1  0.50000000  0.00000000  0.77220000  1.0
  O2-  O1  1  0.50000000  0.50000000  0.77220000  1.0
  O2-  O1  1  0.00000000  0.00000000  0.22780000  1.0
  O2-  O1  1  0.00000000  0.50000000  0.22780000  1.0
  O2-  O1  1  0.50000000  0.00000000  0.22780000  1.0
  O2-  O1  1  0.50000000  0.50000000  0.22780000  1.0
  O2-  O1  1  0.25000000  0.25000000  0.27220000  1.0
  O2-  O1  1  0.25000000  0.75000000  0.27220000  1.0
  O2-  O1  1  0.75000000  0.25000000  0.27220000  1.0
  O2-  O1  1  0.75000000  0.75000000  0.27220000  1.0
  O2-  O1  1  0.25000000  0.25000000  0.72780000  1.0
  O2-  O1  1  0.25000000  0.75000000  0.72780000  1.0
  O2-  O1  1  0.75000000  0.25000000  0.72780000  1.0
  O2-  O1  1  0.75000000  0.75000000  0.72780000  1.0
  O2-  O2  1  0.25000000  0.00000000  0.85030000  1.0
  O2-  O2  1  0.25000000  0.50000000  0.85030000  1.0
  O2-  O2  1  0.75000000  0.00000000  0.85030000  1.0
  O2-  O2  1  0.75000000  0.50000000  0.85030000  1.0
  O2-  O2  1  0.00000000  0.25000000  0.85030000  1.0
  O2-  O2  1  0.00000000  0.75000000  0.85030000  1.0
  O2-  O2  1  0.50000000  0.25000000  0.85030000  1.0
  O2-  O2  1  0.50000000  0.75000000  0.85030000  1.0
  O2-  O2  1  0.25000000  0.00000000  0.14970000  1.0
  O2-  O2  1  0.25000000  0.50000000  0.14970000  1.0
  O2-  O2  1  0.75000000  0.00000000  0.14970000  1.0
  O2-  O2  1  0.75000000  0.50000000  0.14970000  1.0
  O2-  O2  1  0.00000000  0.25000000  0.14970000  1.0
  O2-  O2  1  0.00000000  0.75000000  0.14970000  1.0
  O2-  O2  1  0.50000000  0.25000000  0.14970000  1.0
  O2-  O2  1  0.50000000  0.75000000  0.14970000  1.0
  O2-  O2  1  0.00000000  0.25000000  0.35030000  1.0
  O2-  O2  1  0.00000000  0.75000000  0.35030000  1.0
  O2-  O2  1  0.50000000  0.25000000  0.35030000  1.0
  O2-  O2  1  0.50000000  0.75000000  0.35030000  1.0
  O2-  O2  1  0.25000000  0.00000000  0.35030000  1.0
  O2-  O2  1  0.25000000  0.50000000  0.35030000  1.0
  O2-  O2  1  0.75000000  0.00000000  0.35030000  1.0
  O2-  O2  1  0.75000000  0.50000000  0.35030000  1.0
  O2-  O2  1  0.00000000  0.25000000  0.64970000  1.0
  O2-  O2  1  0.00000000  0.75000000  0.64970000  1.0
  O2-  O2  1  0.50000000  0.25000000  0.64970000  1.0
  O2-  O2  1  0.50000000  0.75000000  0.64970000  1.0
  O2-  O2  1  0.25000000  0.00000000  0.64970000  1.0
  O2-  O2  1  0.25000000  0.50000000  0.64970000  1.0
  O2-  O2  1  0.75000000  0.00000000  0.64970000  1.0
  O2-  O2  1  0.75000000  0.50000000  0.64970000  1.0
  O2-  O3  1  0.00000000  0.00000000  0.92550000  1.0
  O2-  O3  1  0.00000000  0.50000000  0.92550000  1.0
  O2-  O3  1  0.50000000  0.00000000  0.92550000  1.0
  O2-  O3  1  0.50000000  0.50000000  0.92550000  1.0
  O2-  O3  1  0.00000000  0.00000000  0.07450000  1.0
  O2-  O3  1  0.00000000  0.50000000  0.07450000  1.0
  O2-  O3  1  0.50000000  0.00000000  0.07450000  1.0
  O2-  O3  1  0.50000000  0.50000000  0.07450000  1.0
  O2-  O3  1  0.25000000  0.25000000  0.42550000  1.0
  O2-  O3  1  0.25000000  0.75000000  0.42550000  1.0
  O2-  O3  1  0.75000000  0.25000000  0.42550000  1.0
  O2-  O3  1  0.75000000  0.75000000  0.42550000  1.0
  O2-  O3  1  0.25000000  0.25000000  0.57450000  1.0
  O2-  O3  1  0.25000000  0.75000000  0.57450000  1.0
  O2-  O3  1  0.75000000  0.25000000  0.57450000  1.0
  O2-  O3  1  0.75000000  0.75000000  0.57450000  1.0
  O2-  O4  1  0.25000000  0.00000000  0.00000000  1.0
  O2-  O4  1  0.25000000  0.50000000  0.00000000  1.0
  O2-  O4  1  0.75000000  0.00000000  0.00000000  1.0
  O2-  O4  1  0.75000000  0.50000000  0.00000000  1.0
  O2-  O4  1  0.00000000  0.25000000  0.00000000  1.0
  O2-  O4  1  0.00000000  0.75000000  0.00000000  1.0
  O2-  O4  1  0.50000000  0.25000000  0.00000000  1.0
  O2-  O4  1  0.50000000  0.75000000  0.00000000  1.0
  O2-  O4  1  0.00000000  0.25000000  0.50000000  1.0
  O2-  O4  1  0.00000000  0.75000000  0.50000000  1.0
  O2-  O4  1  0.50000000  0.25000000  0.50000000  1.0
  O2-  O4  1  0.50000000  0.75000000  0.50000000  1.0
  O2-  O4  1  0.25000000  0.00000000  0.50000000  1.0
  O2-  O4  1  0.25000000  0.50000000  0.50000000  1.0
  O2-  O4  1  0.75000000  0.00000000  0.50000000  1.0
  O2-  O4  1  0.75000000  0.50000000  0.50000000  1.0
