# generated using pymatgen
data_Li6GeMoO8
_symmetry_space_group_name_H-M   'P 1'
_cell_length_a   9.83840000
_cell_length_b   11.05998000
_cell_length_c   19.28262000
_cell_angle_alpha   90.00000000
_cell_angle_beta   90.00000000
_cell_angle_gamma   90.00000000
_symmetry_Int_Tables_number   1
_chemical_formula_structural   Li6GeMoO8
_chemical_formula_sum   'Li72 Ge12 Mo12 O96'
_cell_volume   2098.19022820
_cell_formula_units_Z   12
loop_
 _symmetry_equiv_pos_site_id
 _symmetry_equiv_pos_as_xyz
  1  'x, y, z'
loop_
 _atom_type_symbol
 _atom_type_oxidation_number
  Li+  1.0
  Ge4+  4.0
  Mo6+  6.0
  O2-  -2.0
loop_
 _atom_site_type_symbol
 _atom_site_label
 _atom_site_symmetry_multiplicity
 _atom_site_fract_x
 _atom_site_fract_y
 _atom_site_fract_z
 _atom_site_occupancy
  Li+  Li1  1  0.49855000  0.33375000  0.25316667  1.0
  Li+  Li1  1  0.49855000  0.33375000  0.58650000  1.0
  Li+  Li1  1  0.49855000  0.33375000  0.91983333  1.0
  Li+  Li1  1  0.49855000  0.83375000  0.25316667  1.0
  Li+  Li1  1  0.49855000  0.83375000  0.58650000  1.0
  Li+  Li1  1  0.49855000  0.83375000  0.91983333  1.0
  Li+  Li1  1  0.99855000  0.33375000  0.25316667  1.0
  Li+  Li1  1  0.99855000  0.33375000  0.58650000  1.0
  Li+  Li1  1  0.99855000  0.33375000  0.91983333  1.0
  Li+  Li1  1  0.99855000  0.83375000  0.25316667  1.0
  Li+  Li1  1  0.99855000  0.83375000  0.58650000  1.0
  Li+  Li1  1  0.99855000  0.83375000  0.91983333  1.0
  Li+  Li1  1  0.49855000  0.33375000  0.08016667  1.0
  Li+  Li1  1  0.49855000  0.33375000  0.41350000  1.0
  Li+  Li1  1  0.49855000  0.33375000  0.74683333  1.0
  Li+  Li1  1  0.49855000  0.83375000  0.08016667  1.0
  Li+  Li1  1  0.49855000  0.83375000  0.41350000  1.0
  Li+  Li1  1  0.49855000  0.83375000  0.74683333  1.0
  Li+  Li1  1  0.99855000  0.33375000  0.08016667  1.0
  Li+  Li1  1  0.99855000  0.33375000  0.41350000  1.0
  Li+  Li1  1  0.99855000  0.33375000  0.74683333  1.0
  Li+  Li1  1  0.99855000  0.83375000  0.08016667  1.0
  Li+  Li1  1  0.99855000  0.83375000  0.41350000  1.0
  Li+  Li1  1  0.99855000  0.83375000  0.74683333  1.0
  Li+  Li1  1  0.24855000  0.16625000  0.08650000  1.0
  Li+  Li1  1  0.24855000  0.16625000  0.41983333  1.0
  Li+  Li1  1  0.24855000  0.16625000  0.75316667  1.0
  Li+  Li1  1  0.24855000  0.66625000  0.08650000  1.0
  Li+  Li1  1  0.24855000  0.66625000  0.41983333  1.0
  Li+  Li1  1  0.24855000  0.66625000  0.75316667  1.0
  Li+  Li1  1  0.74855000  0.16625000  0.08650000  1.0
  Li+  Li1  1  0.74855000  0.16625000  0.41983333  1.0
  Li+  Li1  1  0.74855000  0.16625000  0.75316667  1.0
  Li+  Li1  1  0.74855000  0.66625000  0.08650000  1.0
  Li+  Li1  1  0.74855000  0.66625000  0.41983333  1.0
  Li+  Li1  1  0.74855000  0.66625000  0.75316667  1.0
  Li+  Li1  1  0.24855000  0.16625000  0.24683333  1.0
  Li+  Li1  1  0.24855000  0.16625000  0.58016667  1.0
  Li+  Li1  1  0.24855000  0.16625000  0.91350000  1.0
  Li+  Li1  1  0.24855000  0.66625000  0.24683333  1.0
  Li+  Li1  1  0.24855000  0.66625000  0.58016667  1.0
  Li+  Li1  1  0.24855000  0.66625000  0.91350000  1.0
  Li+  Li1  1  0.74855000  0.16625000  0.24683333  1.0
  Li+  Li1  1  0.74855000  0.16625000  0.58016667  1.0
  Li+  Li1  1  0.74855000  0.16625000  0.91350000  1.0
  Li+  Li1  1  0.74855000  0.66625000  0.24683333  1.0
  Li+  Li1  1  0.74855000  0.66625000  0.58016667  1.0
  Li+  Li1  1  0.74855000  0.66625000  0.91350000  1.0
  Li+  Li2  1  0.01600000  0.08665000  0.16666667  1.0
  Li+  Li2  1  0.01600000  0.08665000  0.50000000  1.0
  Li+  Li2  1  0.01600000  0.08665000  0.83333333  1.0
  Li+  Li2  1  0.01600000  0.58665000  0.16666667  1.0
  Li+  Li2  1  0.01600000  0.58665000  0.50000000  1.0
  Li+  Li2  1  0.01600000  0.58665000  0.83333333  1.0
  Li+  Li2  1  0.51600000  0.08665000  0.16666667  1.0
  Li+  Li2  1  0.51600000  0.08665000  0.50000000  1.0
  Li+  Li2  1  0.51600000  0.08665000  0.83333333  1.0
  Li+  Li2  1  0.51600000  0.58665000  0.16666667  1.0
  Li+  Li2  1  0.51600000  0.58665000  0.50000000  1.0
  Li+  Li2  1  0.51600000  0.58665000  0.83333333  1.0
  Li+  Li2  1  0.26600000  0.41335000  0.00000000  1.0
  Li+  Li2  1  0.26600000  0.41335000  0.33333333  1.0
  Li+  Li2  1  0.26600000  0.41335000  0.66666667  1.0
  Li+  Li2  1  0.26600000  0.91335000  0.00000000  1.0
  Li+  Li2  1  0.26600000  0.91335000  0.33333333  1.0
  Li+  Li2  1  0.26600000  0.91335000  0.66666667  1.0
  Li+  Li2  1  0.76600000  0.41335000  0.00000000  1.0
  Li+  Li2  1  0.76600000  0.41335000  0.33333333  1.0
  Li+  Li2  1  0.76600000  0.41335000  0.66666667  1.0
  Li+  Li2  1  0.76600000  0.91335000  0.00000000  1.0
  Li+  Li2  1  0.76600000  0.91335000  0.33333333  1.0
  Li+  Li2  1  0.76600000  0.91335000  0.66666667  1.0
  Ge4+  Ge24  1  0.25070000  0.41411000  0.16666667  1.0
  Ge4+  Ge24  1  0.25070000  0.41411000  0.50000000  1.0
  Ge4+  Ge24  1  0.25070000  0.41411000  0.83333333  1.0
  Ge4+  Ge25  1  0.25070000  0.91411000  0.16666667  1.0
  Ge4+  Ge25  1  0.25070000  0.91411000  0.50000000  1.0
  Ge4+  Ge25  1  0.25070000  0.91411000  0.83333333  1.0
  Ge4+  Ge26  1  0.75070000  0.41411000  0.16666667  1.0
  Ge4+  Ge26  1  0.75070000  0.41411000  0.50000000  1.0
  Ge4+  Ge26  1  0.75070000  0.41411000  0.83333333  1.0
  Ge4+  Ge27  1  0.75070000  0.91411000  0.16666667  1.0
  Ge4+  Ge27  1  0.75070000  0.91411000  0.50000000  1.0
  Ge4+  Ge27  1  0.75070000  0.91411000  0.83333333  1.0
  Mo6+  Mo28  1  0.00070000  0.08589000  0.00000000  1.0
  Mo6+  Mo28  1  0.00070000  0.08589000  0.33333333  1.0
  Mo6+  Mo28  1  0.00070000  0.08589000  0.66666667  1.0
  Mo6+  Mo29  1  0.00070000  0.58589000  0.00000000  1.0
  Mo6+  Mo29  1  0.00070000  0.58589000  0.33333333  1.0
  Mo6+  Mo29  1  0.00070000  0.58589000  0.66666667  1.0
  Mo6+  Mo30  1  0.50070000  0.08589000  0.00000000  1.0
  Mo6+  Mo30  1  0.50070000  0.08589000  0.33333333  1.0
  Mo6+  Mo30  1  0.50070000  0.08589000  0.66666667  1.0
  Mo6+  Mo31  1  0.50070000  0.58589000  0.00000000  1.0
  Mo6+  Mo31  1  0.50070000  0.58589000  0.33333333  1.0
  Mo6+  Mo31  1  0.50070000  0.58589000  0.66666667  1.0
  O2-  O1  1  0.05505000  0.16141000  0.25712000  1.0
  O2-  O1  1  0.05505000  0.16141000  0.59045333  1.0
  O2-  O1  1  0.05505000  0.16141000  0.92378667  1.0
  O2-  O1  1  0.05505000  0.66141000  0.25712000  1.0
  O2-  O1  1  0.05505000  0.66141000  0.59045333  1.0
  O2-  O1  1  0.05505000  0.66141000  0.92378667  1.0
  O2-  O1  1  0.55505000  0.16141000  0.25712000  1.0
  O2-  O1  1  0.55505000  0.16141000  0.59045333  1.0
  O2-  O1  1  0.55505000  0.16141000  0.92378667  1.0
  O2-  O1  1  0.55505000  0.66141000  0.25712000  1.0
  O2-  O1  1  0.55505000  0.66141000  0.59045333  1.0
  O2-  O1  1  0.55505000  0.66141000  0.92378667  1.0
  O2-  O1  1  0.05505000  0.16141000  0.07621333  1.0
  O2-  O1  1  0.05505000  0.16141000  0.40954667  1.0
  O2-  O1  1  0.05505000  0.16141000  0.74288000  1.0
  O2-  O1  1  0.05505000  0.66141000  0.07621333  1.0
  O2-  O1  1  0.05505000  0.66141000  0.40954667  1.0
  O2-  O1  1  0.05505000  0.66141000  0.74288000  1.0
  O2-  O1  1  0.55505000  0.16141000  0.07621333  1.0
  O2-  O1  1  0.55505000  0.16141000  0.40954667  1.0
  O2-  O1  1  0.55505000  0.16141000  0.74288000  1.0
  O2-  O1  1  0.55505000  0.66141000  0.07621333  1.0
  O2-  O1  1  0.55505000  0.66141000  0.40954667  1.0
  O2-  O1  1  0.55505000  0.66141000  0.74288000  1.0
  O2-  O1  1  0.30505000  0.33859000  0.09045333  1.0
  O2-  O1  1  0.30505000  0.33859000  0.42378667  1.0
  O2-  O1  1  0.30505000  0.33859000  0.75712000  1.0
  O2-  O1  1  0.30505000  0.83859000  0.09045333  1.0
  O2-  O1  1  0.30505000  0.83859000  0.42378667  1.0
  O2-  O1  1  0.30505000  0.83859000  0.75712000  1.0
  O2-  O1  1  0.80505000  0.33859000  0.09045333  1.0
  O2-  O1  1  0.80505000  0.33859000  0.42378667  1.0
  O2-  O1  1  0.80505000  0.33859000  0.75712000  1.0
  O2-  O1  1  0.80505000  0.83859000  0.09045333  1.0
  O2-  O1  1  0.80505000  0.83859000  0.42378667  1.0
  O2-  O1  1  0.80505000  0.83859000  0.75712000  1.0
  O2-  O1  1  0.30505000  0.33859000  0.24288000  1.0
  O2-  O1  1  0.30505000  0.33859000  0.57621333  1.0
  O2-  O1  1  0.30505000  0.33859000  0.90954667  1.0
  O2-  O1  1  0.30505000  0.83859000  0.24288000  1.0
  O2-  O1  1  0.30505000  0.83859000  0.57621333  1.0
  O2-  O1  1  0.30505000  0.83859000  0.90954667  1.0
  O2-  O1  1  0.80505000  0.33859000  0.24288000  1.0
  O2-  O1  1  0.80505000  0.33859000  0.57621333  1.0
  O2-  O1  1  0.80505000  0.33859000  0.90954667  1.0
  O2-  O1  1  0.80505000  0.83859000  0.24288000  1.0
  O2-  O1  1  0.80505000  0.83859000  0.57621333  1.0
  O2-  O1  1  0.80505000  0.83859000  0.90954667  1.0
  O2-  O2  1  0.05300000  0.43068500  0.00000000  1.0
  O2-  O2  1  0.05300000  0.43068500  0.33333333  1.0
  O2-  O2  1  0.05300000  0.43068500  0.66666667  1.0
  O2-  O2  1  0.05300000  0.93068500  0.00000000  1.0
  O2-  O2  1  0.05300000  0.93068500  0.33333333  1.0
  O2-  O2  1  0.05300000  0.93068500  0.66666667  1.0
  O2-  O2  1  0.55300000  0.43068500  0.00000000  1.0
  O2-  O2  1  0.55300000  0.43068500  0.33333333  1.0
  O2-  O2  1  0.55300000  0.43068500  0.66666667  1.0
  O2-  O2  1  0.55300000  0.93068500  0.00000000  1.0
  O2-  O2  1  0.55300000  0.93068500  0.33333333  1.0
  O2-  O2  1  0.55300000  0.93068500  0.66666667  1.0
  O2-  O2  1  0.30300000  0.06931500  0.16666667  1.0
  O2-  O2  1  0.30300000  0.06931500  0.50000000  1.0
  O2-  O2  1  0.30300000  0.06931500  0.83333333  1.0
  O2-  O2  1  0.30300000  0.56931500  0.16666667  1.0
  O2-  O2  1  0.30300000  0.56931500  0.50000000  1.0
  O2-  O2  1  0.30300000  0.56931500  0.83333333  1.0
  O2-  O2  1  0.80300000  0.06931500  0.16666667  1.0
  O2-  O2  1  0.80300000  0.06931500  0.50000000  1.0
  O2-  O2  1  0.80300000  0.06931500  0.83333333  1.0
  O2-  O2  1  0.80300000  0.56931500  0.16666667  1.0
  O2-  O2  1  0.80300000  0.56931500  0.50000000  1.0
  O2-  O2  1  0.80300000  0.56931500  0.83333333  1.0
  O2-  O3  1  0.07180000  0.41430000  0.16666667  1.0
  O2-  O3  1  0.07180000  0.41430000  0.50000000  1.0
  O2-  O3  1  0.07180000  0.41430000  0.83333333  1.0
  O2-  O3  1  0.07180000  0.91430000  0.16666667  1.0
  O2-  O3  1  0.07180000  0.91430000  0.50000000  1.0
  O2-  O3  1  0.07180000  0.91430000  0.83333333  1.0
  O2-  O3  1  0.57180000  0.41430000  0.16666667  1.0
  O2-  O3  1  0.57180000  0.41430000  0.50000000  1.0
  O2-  O3  1  0.57180000  0.41430000  0.83333333  1.0
  O2-  O3  1  0.57180000  0.91430000  0.16666667  1.0
  O2-  O3  1  0.57180000  0.91430000  0.50000000  1.0
  O2-  O3  1  0.57180000  0.91430000  0.83333333  1.0
  O2-  O3  1  0.32180000  0.08570000  0.00000000  1.0
  O2-  O3  1  0.32180000  0.08570000  0.33333333  1.0
  O2-  O3  1  0.32180000  0.08570000  0.66666667  1.0
  O2-  O3  1  0.32180000  0.58570000  0.00000000  1.0
  O2-  O3  1  0.32180000  0.58570000  0.33333333  1.0
  O2-  O3  1  0.32180000  0.58570000  0.66666667  1.0
  O2-  O3  1  0.82180000  0.08570000  0.00000000  1.0
  O2-  O3  1  0.82180000  0.08570000  0.33333333  1.0
  O2-  O3  1  0.82180000  0.08570000  0.66666667  1.0
  O2-  O3  1  0.82180000  0.58570000  0.00000000  1.0
  O2-  O3  1  0.82180000  0.58570000  0.33333333  1.0
  O2-  O3  1  0.82180000  0.58570000  0.66666667  1.0
