# generated using pymatgen
data_Li6Zn3(PS4)4
_symmetry_space_group_name_H-M   'P 1'
_cell_length_a   34.58460000
_cell_length_b   12.02757233
_cell_length_c   11.52820000
_cell_angle_alpha   118.63581084
_cell_angle_beta   90.00000000
_cell_angle_gamma   61.36418916
_symmetry_Int_Tables_number   1
_chemical_formula_structural   Li6Zn3(PS4)4
_chemical_formula_sum   'Li36 Zn18 P24 S96'
_cell_volume   3526.00701556
_cell_formula_units_Z   6
loop_
 _symmetry_equiv_pos_site_id
 _symmetry_equiv_pos_as_xyz
  1  'x, y, z'
loop_
 _atom_type_symbol
 _atom_type_oxidation_number
  Li+  1.0
  Zn2+  2.0
  P5+  5.0
  S2-  -2.0
loop_
 _atom_site_type_symbol
 _atom_site_label
 _atom_site_symmetry_multiplicity
 _atom_site_fract_x
 _atom_site_fract_y
 _atom_site_fract_z
 _atom_site_occupancy
  Li+  Li0  1  0.08412635  0.49922595  0.49816960  1.0
  Li+  Li1  1  0.41666667  0.50000000  0.50000000  1.0
  Li+  Li2  1  0.75000000  0.50000000  0.50000000  1.0
  Li+  Li3  1  0.08040907  0.99841778  0.49868478  1.0
  Li+  Li4  1  0.41666667  0.00000000  0.50000000  1.0
  Li+  Li5  1  0.75000000  0.00000000  0.50000000  1.0
  Li+  Li6  1  0.08333333  0.50000000  0.00000000  1.0
  Li+  Li7  1  0.41666667  0.50000000  0.00000000  1.0
  Li+  Li8  1  0.74958191  0.50374644  0.00087687  1.0
  Li+  Li9  1  0.08333333  0.00000000  0.00000000  1.0
  Li+  Li10  1  0.41666667  0.00000000  0.00000000  1.0
  Li+  Li11  1  0.75415810  0.99760961  0.99943109  1.0
  Li+  Li12  1  0.25000000  0.50000000  0.50000000  1.0
  Li+  Li13  1  0.58333333  0.50000000  0.50000000  1.0
  Li+  Li14  1  0.91758703  0.49788936  0.50029072  1.0
  Li+  Li15  1  0.25000000  0.00000000  0.50000000  1.0
  Li+  Li16  1  0.58147582  0.00375630  0.49839713  1.0
  Li+  Li17  1  0.91666667  0.00000000  0.50000000  1.0
  Li+  Li18  1  0.25000000  0.50000000  0.00000000  1.0
  Li+  Li19  1  0.58333333  0.50000000  0.00000000  1.0
  Li+  Li20  1  0.91666667  0.50000000  0.00000000  1.0
  Li+  Li21  1  0.25000000  0.00000000  0.00000000  1.0
  Li+  Li22  1  0.58162597  0.99771730  0.00200014  1.0
  Li+  Li23  1  0.91666667  0.00000000  0.00000000  1.0
  Li+  Li24  1  0.00000000  0.50000000  0.75000000  1.0
  Li+  Li25  1  0.33333333  0.50000000  0.75000000  1.0
  Li+  Li26  1  0.66666667  0.50000000  0.75000000  1.0
  Li+  Li27  1  0.16666667  0.00000000  0.25000000  1.0
  Li+  Li28  1  0.50000000  0.00000000  0.25000000  1.0
  Li+  Li29  1  0.83519882  0.99696906  0.24943481  1.0
  Li+  Li30  1  0.12500000  0.25000000  0.62500000  1.0
  Li+  Li31  1  0.45833333  0.25000000  0.62500000  1.0
  Li+  Li32  1  0.79218989  0.25073526  0.62500253  1.0
  Li+  Li33  1  0.29263848  0.74872473  0.12008560  1.0
  Li+  Li34  1  0.62500000  0.75000000  0.12500000  1.0
  Li+  Li35  1  0.95833333  0.75000000  0.12500000  1.0
  Zn2+  Zn36  1  0.00000000  0.00000000  0.75000000  1.0
  Zn2+  Zn37  1  0.33333333  0.00000000  0.75000000  1.0
  Zn2+  Zn38  1  0.66666667  0.00000000  0.75000000  1.0
  Zn2+  Zn39  1  0.00000000  0.00000000  0.25000000  1.0
  Zn2+  Zn40  1  0.33333333  0.00000000  0.25000000  1.0
  Zn2+  Zn41  1  0.66666667  0.00000000  0.25000000  1.0
  Zn2+  Zn42  1  0.00000000  0.50000000  0.25000000  1.0
  Zn2+  Zn43  1  0.33764694  0.50083626  0.25638484  1.0
  Zn2+  Zn44  1  0.66666667  0.50000000  0.25000000  1.0
  Zn2+  Zn45  1  0.16666667  0.00000000  0.75000000  1.0
  Zn2+  Zn46  1  0.50000000  0.00000000  0.75000000  1.0
  Zn2+  Zn47  1  0.83333333  0.00000000  0.75000000  1.0
  Zn2+  Zn48  1  0.16666667  0.50000000  0.75000000  1.0
  Zn2+  Zn49  1  0.49800953  0.49893897  0.75007056  1.0
  Zn2+  Zn50  1  0.83182008  0.49860319  0.75341294  1.0
  Zn2+  Zn51  1  0.16666667  0.50000000  0.25000000  1.0
  Zn2+  Zn52  1  0.50000000  0.50000000  0.25000000  1.0
  Zn2+  Zn53  1  0.83333333  0.50000000  0.25000000  1.0
  P5+  P54  1  0.04166667  0.75000000  0.37500000  1.0
  P5+  P55  1  0.37500000  0.75000000  0.37500000  1.0
  P5+  P56  1  0.70833333  0.75000000  0.37500000  1.0
  P5+  P57  1  0.04166667  0.25000000  0.37500000  1.0
  P5+  P58  1  0.37500000  0.25000000  0.37500000  1.0
  P5+  P59  1  0.70833333  0.25000000  0.37500000  1.0
  P5+  P60  1  0.04166667  0.75000000  0.87500000  1.0
  P5+  P61  1  0.37500000  0.75000000  0.87500000  1.0
  P5+  P62  1  0.70833333  0.75000000  0.87500000  1.0
  P5+  P63  1  0.04361613  0.24668227  0.87574864  1.0
  P5+  P64  1  0.37500000  0.25000000  0.87500000  1.0
  P5+  P65  1  0.70833333  0.25000000  0.87500000  1.0
  P5+  P66  1  0.20833333  0.75000000  0.37500000  1.0
  P5+  P67  1  0.53968205  0.75068417  0.37677679  1.0
  P5+  P68  1  0.87500000  0.75000000  0.37500000  1.0
  P5+  P69  1  0.20833333  0.25000000  0.37500000  1.0
  P5+  P70  1  0.54166667  0.25000000  0.37500000  1.0
  P5+  P71  1  0.87500000  0.25000000  0.37500000  1.0
  P5+  P72  1  0.20833333  0.75000000  0.87500000  1.0
  P5+  P73  1  0.54166667  0.75000000  0.87500000  1.0
  P5+  P74  1  0.87500000  0.75000000  0.87500000  1.0
  P5+  P75  1  0.20833333  0.25000000  0.87500000  1.0
  P5+  P76  1  0.54166667  0.25000000  0.87500000  1.0
  P5+  P77  1  0.87500000  0.25000000  0.87500000  1.0
  S2-  S78  1  0.09931667  0.62200000  0.41340000  1.0
  S2-  S79  1  0.43265000  0.62200000  0.41340000  1.0
  S2-  S80  1  0.76648177  0.62127192  0.41401123  1.0
  S2-  S81  1  0.09931667  0.12200000  0.41340000  1.0
  S2-  S82  1  0.43265000  0.12200000  0.41340000  1.0
  S2-  S83  1  0.76598333  0.12200000  0.41340000  1.0
  S2-  S84  1  0.09931667  0.62200000  0.91340000  1.0
  S2-  S85  1  0.43265000  0.62200000  0.91340000  1.0
  S2-  S86  1  0.76588372  0.62116559  0.91055717  1.0
  S2-  S87  1  0.09931667  0.12200000  0.91340000  1.0
  S2-  S88  1  0.43265000  0.12200000  0.91340000  1.0
  S2-  S89  1  0.76598333  0.12200000  0.91340000  1.0
  S2-  S90  1  0.26598333  0.62200000  0.41340000  1.0
  S2-  S91  1  0.59931667  0.62200000  0.41340000  1.0
  S2-  S92  1  0.93265000  0.62200000  0.41340000  1.0
  S2-  S93  1  0.26909450  0.12005140  0.41242900  1.0
  S2-  S94  1  0.59848349  0.11940295  0.41345230  1.0
  S2-  S95  1  0.93265000  0.12200000  0.41340000  1.0
  S2-  S96  1  0.26598333  0.62200000  0.91340000  1.0
  S2-  S97  1  0.59931667  0.62200000  0.91340000  1.0
  S2-  S98  1  0.93265000  0.62200000  0.91340000  1.0
  S2-  S99  1  0.26598333  0.12200000  0.91340000  1.0
  S2-  S100  1  0.59931667  0.12200000  0.91340000  1.0
  S2-  S101  1  0.93265000  0.12200000  0.91340000  1.0
  S2-  S102  1  0.02750625  0.61974352  0.70768089  1.0
  S2-  S103  1  0.36112784  0.61967656  0.71036130  1.0
  S2-  S104  1  0.69335000  0.62200000  0.70860000  1.0
  S2-  S105  1  0.02668333  0.12200000  0.70860000  1.0
  S2-  S106  1  0.36001667  0.12200000  0.70860000  1.0
  S2-  S107  1  0.69335000  0.12200000  0.70860000  1.0
  S2-  S108  1  0.02668333  0.62200000  0.20860000  1.0
  S2-  S109  1  0.36001667  0.62200000  0.20860000  1.0
  S2-  S110  1  0.69335000  0.62200000  0.20860000  1.0
  S2-  S111  1  0.02668333  0.12200000  0.20860000  1.0
  S2-  S112  1  0.36001667  0.12200000  0.20860000  1.0
  S2-  S113  1  0.69335000  0.12200000  0.20860000  1.0
  S2-  S114  1  0.19335000  0.62200000  0.70860000  1.0
  S2-  S115  1  0.52601002  0.62227950  0.70697730  1.0
  S2-  S116  1  0.86162269  0.62201284  0.70586416  1.0
  S2-  S117  1  0.19335000  0.12200000  0.70860000  1.0
  S2-  S118  1  0.52668333  0.12200000  0.70860000  1.0
  S2-  S119  1  0.86001667  0.12200000  0.70860000  1.0
  S2-  S120  1  0.19473635  0.62121883  0.20357905  1.0
  S2-  S121  1  0.52856626  0.62645064  0.20943321  1.0
  S2-  S122  1  0.86001667  0.62200000  0.20860000  1.0
  S2-  S123  1  0.19335000  0.12200000  0.20860000  1.0
  S2-  S124  1  0.52668333  0.12200000  0.20860000  1.0
  S2-  S125  1  0.86037918  0.12217823  0.21226890  1.0
  S2-  S126  1  0.05446667  0.87800000  0.33005000  1.0
  S2-  S127  1  0.38780000  0.87800000  0.33005000  1.0
  S2-  S128  1  0.72113333  0.87800000  0.33005000  1.0
  S2-  S129  1  0.05446667  0.37800000  0.33005000  1.0
  S2-  S130  1  0.38690023  0.37946127  0.32345607  1.0
  S2-  S131  1  0.72113333  0.37800000  0.33005000  1.0
  S2-  S132  1  0.05446667  0.87800000  0.83005000  1.0
  S2-  S133  1  0.38780000  0.87800000  0.83005000  1.0
  S2-  S134  1  0.72113333  0.87800000  0.83005000  1.0
  S2-  S135  1  0.05374008  0.37971497  0.83114030  1.0
  S2-  S136  1  0.38607201  0.37656140  0.83136773  1.0
  S2-  S137  1  0.72113333  0.37800000  0.83005000  1.0
  S2-  S138  1  0.22113333  0.87800000  0.33005000  1.0
  S2-  S139  1  0.55446667  0.87800000  0.33005000  1.0
  S2-  S140  1  0.88780000  0.87800000  0.33005000  1.0
  S2-  S141  1  0.22164318  0.38180787  0.33299940  1.0
  S2-  S142  1  0.55446667  0.37800000  0.33005000  1.0
  S2-  S143  1  0.88860801  0.37814084  0.33295805  1.0
  S2-  S144  1  0.22020223  0.87790056  0.83478471  1.0
  S2-  S145  1  0.55446667  0.87800000  0.83005000  1.0
  S2-  S146  1  0.88780000  0.87800000  0.83005000  1.0
  S2-  S147  1  0.22447607  0.37856524  0.82817493  1.0
  S2-  S148  1  0.55446667  0.37800000  0.83005000  1.0
  S2-  S149  1  0.88780000  0.37800000  0.83005000  1.0
  S2-  S150  1  0.15521372  0.87750570  0.54442988  1.0
  S2-  S151  1  0.48301664  0.87628968  0.54768338  1.0
  S2-  S152  1  0.82061013  0.87572472  0.55053510  1.0
  S2-  S153  1  0.15393618  0.37875974  0.54819440  1.0
  S2-  S154  1  0.48620000  0.37800000  0.54795000  1.0
  S2-  S155  1  0.81847528  0.38232439  0.55242232  1.0
  S2-  S156  1  0.15187197  0.87639272  0.04460923  1.0
  S2-  S157  1  0.48620000  0.87800000  0.04795000  1.0
  S2-  S158  1  0.81678930  0.88017236  0.04548034  1.0
  S2-  S159  1  0.15286667  0.37800000  0.04795000  1.0
  S2-  S160  1  0.48620000  0.37800000  0.04795000  1.0
  S2-  S161  1  0.81953333  0.37800000  0.04795000  1.0
  S2-  S162  1  0.31953333  0.87800000  0.54795000  1.0
  S2-  S163  1  0.65515284  0.88052414  0.54646204  1.0
  S2-  S164  1  0.98620000  0.87800000  0.54795000  1.0
  S2-  S165  1  0.31953333  0.37800000  0.54795000  1.0
  S2-  S166  1  0.65286667  0.37800000  0.54795000  1.0
  S2-  S167  1  0.98620000  0.37800000  0.54795000  1.0
  S2-  S168  1  0.31953333  0.87800000  0.04795000  1.0
  S2-  S169  1  0.65286667  0.87800000  0.04795000  1.0
  S2-  S170  1  0.98355012  0.87182280  0.04975177  1.0
  S2-  S171  1  0.31953333  0.37800000  0.04795000  1.0
  S2-  S172  1  0.65625062  0.37991331  0.04669604  1.0
  S2-  S173  1  0.98620000  0.37800000  0.04795000  1.0
