# generated using pymatgen
data_Li6Zn3(PS4)4
_symmetry_space_group_name_H-M   'P 1'
_cell_length_a   11.53702954
_cell_length_b   34.61108861
_cell_length_c   12.03678434
_cell_angle_alpha   61.36418916
_cell_angle_beta   61.36418916
_cell_angle_gamma   90.00000000
_symmetry_Int_Tables_number   1
_chemical_formula_structural   Li6Zn3(PS4)4
_chemical_formula_sum   'Li36 Zn18 P24 S96'
_cell_volume   3534.11501079
_cell_formula_units_Z   6
loop_
 _symmetry_equiv_pos_site_id
 _symmetry_equiv_pos_as_xyz
  1  'x, y, z'
loop_
 _atom_type_symbol
 _atom_type_oxidation_number
  Li+  1.0
  Zn2+  2.0
  P5+  5.0
  S2-  -2.0
loop_
 _atom_site_type_symbol
 _atom_site_label
 _atom_site_symmetry_multiplicity
 _atom_site_fract_x
 _atom_site_fract_y
 _atom_site_fract_z
 _atom_site_occupancy
  Li+  Li0  1  0.75000000  0.58333333  0.50000000  1.0
  Li+  Li1  1  0.75000000  0.25000000  0.50000000  1.0
  Li+  Li2  1  0.75000000  0.91666667  0.50000000  1.0
  Li+  Li3  1  0.75000000  0.58333333  0.00000000  1.0
  Li+  Li4  1  0.75000000  0.25000000  0.00000000  1.0
  Li+  Li5  1  0.75000000  0.91666667  0.00000000  1.0
  Li+  Li6  1  0.25000000  0.58333333  0.50000000  1.0
  Li+  Li7  1  0.25000000  0.25000000  0.50000000  1.0
  Li+  Li8  1  0.25000000  0.91666667  0.50000000  1.0
  Li+  Li9  1  0.25000000  0.58333333  0.00000000  1.0
  Li+  Li10  1  0.25000000  0.25000000  0.00000000  1.0
  Li+  Li11  1  0.25000000  0.91666667  0.00000000  1.0
  Li+  Li12  1  0.75000000  0.41666667  0.50000000  1.0
  Li+  Li13  1  0.75000000  0.08333333  0.50000000  1.0
  Li+  Li14  1  0.75000000  0.75000000  0.50000000  1.0
  Li+  Li15  1  0.75000000  0.41666667  0.00000000  1.0
  Li+  Li16  1  0.75000000  0.08333333  0.00000000  1.0
  Li+  Li17  1  0.75000000  0.75000000  0.00000000  1.0
  Li+  Li18  1  0.25000000  0.41666667  0.50000000  1.0
  Li+  Li19  1  0.25000000  0.08333333  0.50000000  1.0
  Li+  Li20  1  0.25000000  0.75000000  0.50000000  1.0
  Li+  Li21  1  0.25000000  0.41666667  0.00000000  1.0
  Li+  Li22  1  0.25000000  0.08333333  0.00000000  1.0
  Li+  Li23  1  0.25000000  0.75000000  0.00000000  1.0
  Li+  Li24  1  0.00000000  0.66666667  0.50000000  1.0
  Li+  Li25  1  0.00000000  0.33333333  0.50000000  1.0
  Li+  Li26  1  0.00000000  0.00000000  0.50000000  1.0
  Li+  Li27  1  0.50000000  0.50000000  0.00000000  1.0
  Li+  Li28  1  0.50000000  0.16666667  0.00000000  1.0
  Li+  Li29  1  0.50000000  0.83333333  0.00000000  1.0
  Li+  Li30  1  0.87500000  0.54166667  0.75000000  1.0
  Li+  Li31  1  0.87500000  0.20833333  0.75000000  1.0
  Li+  Li32  1  0.87500000  0.87500000  0.75000000  1.0
  Li+  Li33  1  0.37500000  0.37500000  0.25000000  1.0
  Li+  Li34  1  0.37500000  0.04166667  0.25000000  1.0
  Li+  Li35  1  0.37500000  0.70833333  0.25000000  1.0
  Zn2+  Zn36  1  0.00000000  0.66666667  0.00000000  1.0
  Zn2+  Zn37  1  0.00000000  0.33333333  0.00000000  1.0
  Zn2+  Zn38  1  0.00000000  0.00000000  0.00000000  1.0
  Zn2+  Zn39  1  0.50000000  0.66666667  0.00000000  1.0
  Zn2+  Zn40  1  0.50000000  0.33333333  0.00000000  1.0
  Zn2+  Zn41  1  0.50000000  0.00000000  0.00000000  1.0
  Zn2+  Zn42  1  0.50000000  0.66666667  0.50000000  1.0
  Zn2+  Zn43  1  0.50000000  0.33333333  0.50000000  1.0
  Zn2+  Zn44  1  0.50000000  0.00000000  0.50000000  1.0
  Zn2+  Zn45  1  0.00000000  0.50000000  0.00000000  1.0
  Zn2+  Zn46  1  0.00000000  0.16666667  0.00000000  1.0
  Zn2+  Zn47  1  0.00000000  0.83333333  0.00000000  1.0
  Zn2+  Zn48  1  0.00000000  0.50000000  0.50000000  1.0
  Zn2+  Zn49  1  0.00000000  0.16666667  0.50000000  1.0
  Zn2+  Zn50  1  0.00000000  0.83333333  0.50000000  1.0
  Zn2+  Zn51  1  0.50000000  0.50000000  0.50000000  1.0
  Zn2+  Zn52  1  0.50000000  0.16666667  0.50000000  1.0
  Zn2+  Zn53  1  0.50000000  0.83333333  0.50000000  1.0
  P5+  P54  1  0.62500000  0.62500000  0.25000000  1.0
  P5+  P55  1  0.62500000  0.29166667  0.25000000  1.0
  P5+  P56  1  0.62500000  0.95833333  0.25000000  1.0
  P5+  P57  1  0.62500000  0.62500000  0.75000000  1.0
  P5+  P58  1  0.62500000  0.29166667  0.75000000  1.0
  P5+  P59  1  0.62500000  0.95833333  0.75000000  1.0
  P5+  P60  1  0.12500000  0.62500000  0.25000000  1.0
  P5+  P61  1  0.12500000  0.29166667  0.25000000  1.0
  P5+  P62  1  0.12500000  0.95833333  0.25000000  1.0
  P5+  P63  1  0.12500000  0.62500000  0.75000000  1.0
  P5+  P64  1  0.12500000  0.29166667  0.75000000  1.0
  P5+  P65  1  0.12500000  0.95833333  0.75000000  1.0
  P5+  P66  1  0.62500000  0.45833333  0.25000000  1.0
  P5+  P67  1  0.62500000  0.12500000  0.25000000  1.0
  P5+  P68  1  0.62500000  0.79166667  0.25000000  1.0
  P5+  P69  1  0.62500000  0.45833333  0.75000000  1.0
  P5+  P70  1  0.62500000  0.12500000  0.75000000  1.0
  P5+  P71  1  0.62500000  0.79166667  0.75000000  1.0
  P5+  P72  1  0.12500000  0.45833333  0.25000000  1.0
  P5+  P73  1  0.12500000  0.12500000  0.25000000  1.0
  P5+  P74  1  0.12500000  0.79166667  0.25000000  1.0
  P5+  P75  1  0.12500000  0.45833333  0.75000000  1.0
  P5+  P76  1  0.12500000  0.12500000  0.75000000  1.0
  P5+  P77  1  0.12500000  0.79166667  0.75000000  1.0
  S2-  S78  1  0.66340000  0.56735000  0.37800000  1.0
  S2-  S79  1  0.66340000  0.23401667  0.37800000  1.0
  S2-  S80  1  0.66340000  0.90068333  0.37800000  1.0
  S2-  S81  1  0.66340000  0.56735000  0.87800000  1.0
  S2-  S82  1  0.66340000  0.23401667  0.87800000  1.0
  S2-  S83  1  0.66340000  0.90068333  0.87800000  1.0
  S2-  S84  1  0.16340000  0.56735000  0.37800000  1.0
  S2-  S85  1  0.16340000  0.23401667  0.37800000  1.0
  S2-  S86  1  0.16340000  0.90068333  0.37800000  1.0
  S2-  S87  1  0.16340000  0.56735000  0.87800000  1.0
  S2-  S88  1  0.16340000  0.23401667  0.87800000  1.0
  S2-  S89  1  0.16340000  0.90068333  0.87800000  1.0
  S2-  S90  1  0.66340000  0.40068333  0.37800000  1.0
  S2-  S91  1  0.66340000  0.06735000  0.37800000  1.0
  S2-  S92  1  0.66340000  0.73401667  0.37800000  1.0
  S2-  S93  1  0.66340000  0.40068333  0.87800000  1.0
  S2-  S94  1  0.66340000  0.06735000  0.87800000  1.0
  S2-  S95  1  0.66340000  0.73401667  0.87800000  1.0
  S2-  S96  1  0.16340000  0.40068333  0.37800000  1.0
  S2-  S97  1  0.16340000  0.06735000  0.37800000  1.0
  S2-  S98  1  0.16340000  0.73401667  0.37800000  1.0
  S2-  S99  1  0.16340000  0.40068333  0.87800000  1.0
  S2-  S100  1  0.16340000  0.06735000  0.87800000  1.0
  S2-  S101  1  0.16340000  0.73401667  0.87800000  1.0
  S2-  S102  1  0.95860000  0.63998333  0.37800000  1.0
  S2-  S103  1  0.95860000  0.30665000  0.37800000  1.0
  S2-  S104  1  0.95860000  0.97331667  0.37800000  1.0
  S2-  S105  1  0.95860000  0.63998333  0.87800000  1.0
  S2-  S106  1  0.95860000  0.30665000  0.87800000  1.0
  S2-  S107  1  0.95860000  0.97331667  0.87800000  1.0
  S2-  S108  1  0.45860000  0.63998333  0.37800000  1.0
  S2-  S109  1  0.45860000  0.30665000  0.37800000  1.0
  S2-  S110  1  0.45860000  0.97331667  0.37800000  1.0
  S2-  S111  1  0.45860000  0.63998333  0.87800000  1.0
  S2-  S112  1  0.45860000  0.30665000  0.87800000  1.0
  S2-  S113  1  0.45860000  0.97331667  0.87800000  1.0
  S2-  S114  1  0.95860000  0.47331667  0.37800000  1.0
  S2-  S115  1  0.95860000  0.13998333  0.37800000  1.0
  S2-  S116  1  0.95860000  0.80665000  0.37800000  1.0
  S2-  S117  1  0.95860000  0.47331667  0.87800000  1.0
  S2-  S118  1  0.95860000  0.13998333  0.87800000  1.0
  S2-  S119  1  0.95860000  0.80665000  0.87800000  1.0
  S2-  S120  1  0.45860000  0.47331667  0.37800000  1.0
  S2-  S121  1  0.45860000  0.13998333  0.37800000  1.0
  S2-  S122  1  0.45860000  0.80665000  0.37800000  1.0
  S2-  S123  1  0.45860000  0.47331667  0.87800000  1.0
  S2-  S124  1  0.45860000  0.13998333  0.87800000  1.0
  S2-  S125  1  0.45860000  0.80665000  0.87800000  1.0
  S2-  S126  1  0.58005000  0.61220000  0.12200000  1.0
  S2-  S127  1  0.58005000  0.27886667  0.12200000  1.0
  S2-  S128  1  0.58005000  0.94553333  0.12200000  1.0
  S2-  S129  1  0.58005000  0.61220000  0.62200000  1.0
  S2-  S130  1  0.58005000  0.27886667  0.62200000  1.0
  S2-  S131  1  0.58005000  0.94553333  0.62200000  1.0
  S2-  S132  1  0.08005000  0.61220000  0.12200000  1.0
  S2-  S133  1  0.08005000  0.27886667  0.12200000  1.0
  S2-  S134  1  0.08005000  0.94553333  0.12200000  1.0
  S2-  S135  1  0.08005000  0.61220000  0.62200000  1.0
  S2-  S136  1  0.08005000  0.27886667  0.62200000  1.0
  S2-  S137  1  0.08005000  0.94553333  0.62200000  1.0
  S2-  S138  1  0.58005000  0.44553333  0.12200000  1.0
  S2-  S139  1  0.58005000  0.11220000  0.12200000  1.0
  S2-  S140  1  0.58005000  0.77886667  0.12200000  1.0
  S2-  S141  1  0.58005000  0.44553333  0.62200000  1.0
  S2-  S142  1  0.58005000  0.11220000  0.62200000  1.0
  S2-  S143  1  0.58005000  0.77886667  0.62200000  1.0
  S2-  S144  1  0.08005000  0.44553333  0.12200000  1.0
  S2-  S145  1  0.08005000  0.11220000  0.12200000  1.0
  S2-  S146  1  0.08005000  0.77886667  0.12200000  1.0
  S2-  S147  1  0.08005000  0.44553333  0.62200000  1.0
  S2-  S148  1  0.08005000  0.11220000  0.62200000  1.0
  S2-  S149  1  0.08005000  0.77886667  0.62200000  1.0
  S2-  S150  1  0.79795000  0.51380000  0.12200000  1.0
  S2-  S151  1  0.79795000  0.18046667  0.12200000  1.0
  S2-  S152  1  0.79795000  0.84713333  0.12200000  1.0
  S2-  S153  1  0.79795000  0.51380000  0.62200000  1.0
  S2-  S154  1  0.79795000  0.18046667  0.62200000  1.0
  S2-  S155  1  0.79795000  0.84713333  0.62200000  1.0
  S2-  S156  1  0.29795000  0.51380000  0.12200000  1.0
  S2-  S157  1  0.29795000  0.18046667  0.12200000  1.0
  S2-  S158  1  0.29795000  0.84713333  0.12200000  1.0
  S2-  S159  1  0.29795000  0.51380000  0.62200000  1.0
  S2-  S160  1  0.29795000  0.18046667  0.62200000  1.0
  S2-  S161  1  0.29795000  0.84713333  0.62200000  1.0
  S2-  S162  1  0.79795000  0.34713333  0.12200000  1.0
  S2-  S163  1  0.79795000  0.01380000  0.12200000  1.0
  S2-  S164  1  0.79795000  0.68046667  0.12200000  1.0
  S2-  S165  1  0.79795000  0.34713333  0.62200000  1.0
  S2-  S166  1  0.79795000  0.01380000  0.62200000  1.0
  S2-  S167  1  0.79795000  0.68046667  0.62200000  1.0
  S2-  S168  1  0.29795000  0.34713333  0.12200000  1.0
  S2-  S169  1  0.29795000  0.01380000  0.12200000  1.0
  S2-  S170  1  0.29795000  0.68046667  0.12200000  1.0
  S2-  S171  1  0.29795000  0.34713333  0.62200000  1.0
  S2-  S172  1  0.29795000  0.01380000  0.62200000  1.0
  S2-  S173  1  0.29795000  0.68046667  0.62200000  1.0
