# generated using pymatgen
data_LiPS3
_symmetry_space_group_name_H-M   'P 1'
_cell_length_a   26.10040000
_cell_length_b   13.13981021
_cell_length_c   13.13981021
_cell_angle_alpha   64.45263946
_cell_angle_beta   119.47910550
_cell_angle_gamma   119.47910550
_symmetry_Int_Tables_number   1
_chemical_formula_structural   LiPS3
_chemical_formula_sum   'Li32 P32 S96'
_cell_volume   3307.04457033
_cell_formula_units_Z   32
loop_
 _symmetry_equiv_pos_site_id
 _symmetry_equiv_pos_as_xyz
  1  'x, y, z'
loop_
 _atom_type_symbol
 _atom_type_oxidation_number
  Li+  1.0
  P5+  5.0
  S2-  -2.0
loop_
 _atom_site_type_symbol
 _atom_site_label
 _atom_site_symmetry_multiplicity
 _atom_site_fract_x
 _atom_site_fract_y
 _atom_site_fract_z
 _atom_site_occupancy
  Li+  Li0  1  0.00000000  0.62035000  0.62965000  1.0
  Li+  Li1  1  0.50000000  0.62035000  0.62965000  1.0
  Li+  Li2  1  0.00000000  0.12035000  0.62965000  1.0
  Li+  Li3  1  0.50264622  0.12124726  0.62788450  1.0
  Li+  Li4  1  0.00108249  0.62319613  0.12746988  1.0
  Li+  Li5  1  0.50000000  0.62035000  0.12965000  1.0
  Li+  Li6  1  0.00000000  0.12035000  0.12965000  1.0
  Li+  Li7  1  0.50000000  0.12035000  0.12965000  1.0
  Li+  Li8  1  0.25000000  0.62035000  0.62965000  1.0
  Li+  Li9  1  0.75011836  0.62332187  0.63140715  1.0
  Li+  Li10  1  0.25485119  0.11938615  0.63347177  1.0
  Li+  Li11  1  0.75000000  0.12035000  0.62965000  1.0
  Li+  Li12  1  0.25000000  0.62035000  0.12965000  1.0
  Li+  Li13  1  0.75000000  0.62035000  0.12965000  1.0
  Li+  Li14  1  0.25000000  0.12035000  0.12965000  1.0
  Li+  Li15  1  0.75000000  0.12035000  0.12965000  1.0
  Li+  Li16  1  0.00000000  0.87965000  0.37035000  1.0
  Li+  Li17  1  0.50000000  0.87965000  0.37035000  1.0
  Li+  Li18  1  0.00128532  0.38115417  0.37344144  1.0
  Li+  Li19  1  0.50000000  0.37965000  0.37035000  1.0
  Li+  Li20  1  0.99997561  0.87876695  0.86858154  1.0
  Li+  Li21  1  0.50000000  0.87965000  0.87035000  1.0
  Li+  Li22  1  0.00000000  0.37965000  0.87035000  1.0
  Li+  Li23  1  0.50000000  0.37965000  0.87035000  1.0
  Li+  Li24  1  0.25000000  0.87965000  0.37035000  1.0
  Li+  Li25  1  0.75000000  0.87965000  0.37035000  1.0
  Li+  Li26  1  0.25000000  0.37965000  0.37035000  1.0
  Li+  Li27  1  0.75000000  0.37965000  0.37035000  1.0
  Li+  Li28  1  0.25000000  0.87965000  0.87035000  1.0
  Li+  Li29  1  0.75000000  0.87965000  0.87035000  1.0
  Li+  Li30  1  0.25000000  0.37965000  0.87035000  1.0
  Li+  Li31  1  0.75000000  0.37965000  0.87035000  1.0
  P5+  P32  1  0.14515000  0.82695000  0.57695000  1.0
  P5+  P33  1  0.64515000  0.82695000  0.57695000  1.0
  P5+  P34  1  0.14515000  0.32695000  0.57695000  1.0
  P5+  P35  1  0.64515000  0.32695000  0.57695000  1.0
  P5+  P36  1  0.14992640  0.82610670  0.07670948  1.0
  P5+  P37  1  0.64515000  0.82695000  0.07695000  1.0
  P5+  P38  1  0.14515000  0.32695000  0.07695000  1.0
  P5+  P39  1  0.64515000  0.32695000  0.07695000  1.0
  P5+  P40  1  0.39414563  0.82554450  0.57441221  1.0
  P5+  P41  1  0.89515000  0.82695000  0.57695000  1.0
  P5+  P42  1  0.39410316  0.32449349  0.57630348  1.0
  P5+  P43  1  0.89562062  0.32923870  0.57849743  1.0
  P5+  P44  1  0.39515000  0.82695000  0.07695000  1.0
  P5+  P45  1  0.89515000  0.82695000  0.07695000  1.0
  P5+  P46  1  0.39515000  0.32695000  0.07695000  1.0
  P5+  P47  1  0.89407771  0.32794851  0.07676414  1.0
  P5+  P48  1  0.10148483  0.67743555  0.42504766  1.0
  P5+  P49  1  0.60188383  0.66843942  0.42147589  1.0
  P5+  P50  1  0.10485000  0.17305000  0.42305000  1.0
  P5+  P51  1  0.60485000  0.17305000  0.42305000  1.0
  P5+  P52  1  0.10306334  0.67390232  0.92239812  1.0
  P5+  P53  1  0.60485000  0.67305000  0.92305000  1.0
  P5+  P54  1  0.10485000  0.17305000  0.92305000  1.0
  P5+  P55  1  0.60485000  0.17305000  0.92305000  1.0
  P5+  P56  1  0.35485000  0.67305000  0.42305000  1.0
  P5+  P57  1  0.85485000  0.67305000  0.42305000  1.0
  P5+  P58  1  0.35485000  0.17305000  0.42305000  1.0
  P5+  P59  1  0.85485000  0.17305000  0.42305000  1.0
  P5+  P60  1  0.35485000  0.67305000  0.92305000  1.0
  P5+  P61  1  0.85485000  0.67305000  0.92305000  1.0
  P5+  P62  1  0.35485000  0.17305000  0.92305000  1.0
  P5+  P63  1  0.85485000  0.17305000  0.92305000  1.0
  S2-  S64  1  0.23228108  0.65955994  0.40740782  1.0
  S2-  S65  1  0.73245259  0.65898889  0.41047681  1.0
  S2-  S66  1  0.23598627  0.16174122  0.40922660  1.0
  S2-  S67  1  0.73462500  0.15960000  0.40960000  1.0
  S2-  S68  1  0.23720084  0.65947254  0.91002111  1.0
  S2-  S69  1  0.73462500  0.65960000  0.90960000  1.0
  S2-  S70  1  0.23377082  0.16265319  0.90871016  1.0
  S2-  S71  1  0.73462500  0.15960000  0.90960000  1.0
  S2-  S72  1  0.48462500  0.65960000  0.40960000  1.0
  S2-  S73  1  0.98462500  0.65960000  0.40960000  1.0
  S2-  S74  1  0.48415599  0.16320506  0.40904454  1.0
  S2-  S75  1  0.98462500  0.15960000  0.40960000  1.0
  S2-  S76  1  0.48549682  0.65918762  0.90889160  1.0
  S2-  S77  1  0.98637710  0.66352761  0.90760798  1.0
  S2-  S78  1  0.48462500  0.15960000  0.90960000  1.0
  S2-  S79  1  0.98670268  0.15862848  0.91048398  1.0
  S2-  S80  1  0.01537500  0.84040000  0.59040000  1.0
  S2-  S81  1  0.51537500  0.84040000  0.59040000  1.0
  S2-  S82  1  0.01537500  0.34040000  0.59040000  1.0
  S2-  S83  1  0.51537500  0.34040000  0.59040000  1.0
  S2-  S84  1  0.01537500  0.84040000  0.09040000  1.0
  S2-  S85  1  0.51565863  0.84066479  0.08803945  1.0
  S2-  S86  1  0.01537500  0.34040000  0.09040000  1.0
  S2-  S87  1  0.51537500  0.34040000  0.09040000  1.0
  S2-  S88  1  0.26537500  0.84040000  0.59040000  1.0
  S2-  S89  1  0.76537500  0.84040000  0.59040000  1.0
  S2-  S90  1  0.26537500  0.34040000  0.59040000  1.0
  S2-  S91  1  0.76537500  0.34040000  0.59040000  1.0
  S2-  S92  1  0.26537500  0.84040000  0.09040000  1.0
  S2-  S93  1  0.76537500  0.84040000  0.09040000  1.0
  S2-  S94  1  0.26420015  0.34112275  0.08931380  1.0
  S2-  S95  1  0.76537500  0.34040000  0.09040000  1.0
  S2-  S96  1  0.08152500  0.84890000  0.59890000  1.0
  S2-  S97  1  0.58152500  0.84890000  0.59890000  1.0
  S2-  S98  1  0.08152500  0.34890000  0.59890000  1.0
  S2-  S99  1  0.58152500  0.34890000  0.59890000  1.0
  S2-  S100  1  0.08152500  0.84890000  0.09890000  1.0
  S2-  S101  1  0.58152500  0.84890000  0.09890000  1.0
  S2-  S102  1  0.07677888  0.35196045  0.09826567  1.0
  S2-  S103  1  0.58152500  0.34890000  0.09890000  1.0
  S2-  S104  1  0.33152500  0.84890000  0.59890000  1.0
  S2-  S105  1  0.83152500  0.84890000  0.59890000  1.0
  S2-  S106  1  0.33152500  0.34890000  0.59890000  1.0
  S2-  S107  1  0.83152500  0.34890000  0.59890000  1.0
  S2-  S108  1  0.32990746  0.84872916  0.09969386  1.0
  S2-  S109  1  0.83152500  0.84890000  0.09890000  1.0
  S2-  S110  1  0.33152500  0.34890000  0.09890000  1.0
  S2-  S111  1  0.83152500  0.34890000  0.09890000  1.0
  S2-  S112  1  0.16847500  0.65110000  0.40110000  1.0
  S2-  S113  1  0.66847500  0.65110000  0.40110000  1.0
  S2-  S114  1  0.16847500  0.15110000  0.40110000  1.0
  S2-  S115  1  0.67150778  0.14683941  0.39815645  1.0
  S2-  S116  1  0.17010357  0.64838013  0.90546760  1.0
  S2-  S117  1  0.66847500  0.65110000  0.90110000  1.0
  S2-  S118  1  0.16847500  0.15110000  0.90110000  1.0
  S2-  S119  1  0.66847500  0.15110000  0.90110000  1.0
  S2-  S120  1  0.41847500  0.65110000  0.40110000  1.0
  S2-  S121  1  0.91847500  0.65110000  0.40110000  1.0
  S2-  S122  1  0.41847500  0.15110000  0.40110000  1.0
  S2-  S123  1  0.91964978  0.14696045  0.40010497  1.0
  S2-  S124  1  0.41847500  0.65110000  0.90110000  1.0
  S2-  S125  1  0.91847500  0.65110000  0.90110000  1.0
  S2-  S126  1  0.41478185  0.15131789  0.90318189  1.0
  S2-  S127  1  0.91847500  0.15110000  0.90110000  1.0
  S2-  S128  1  0.12500000  0.63940000  0.61060000  1.0
  S2-  S129  1  0.62500000  0.63940000  0.61060000  1.0
  S2-  S130  1  0.12488541  0.14121331  0.60919757  1.0
  S2-  S131  1  0.62429130  0.14340027  0.61100139  1.0
  S2-  S132  1  0.12500000  0.63940000  0.11060000  1.0
  S2-  S133  1  0.62500000  0.63940000  0.11060000  1.0
  S2-  S134  1  0.12500000  0.13940000  0.11060000  1.0
  S2-  S135  1  0.62618833  0.13707505  0.10583692  1.0
  S2-  S136  1  0.37500000  0.63940000  0.61060000  1.0
  S2-  S137  1  0.87500000  0.63940000  0.61060000  1.0
  S2-  S138  1  0.37251101  0.13974407  0.61361824  1.0
  S2-  S139  1  0.87438580  0.13977742  0.60671736  1.0
  S2-  S140  1  0.37648584  0.63831475  0.11093123  1.0
  S2-  S141  1  0.87500000  0.63940000  0.11060000  1.0
  S2-  S142  1  0.37500000  0.13940000  0.11060000  1.0
  S2-  S143  1  0.87500000  0.13940000  0.11060000  1.0
  S2-  S144  1  0.12500000  0.86060000  0.38940000  1.0
  S2-  S145  1  0.62500000  0.86060000  0.38940000  1.0
  S2-  S146  1  0.12500000  0.36060000  0.38940000  1.0
  S2-  S147  1  0.62500000  0.36060000  0.38940000  1.0
  S2-  S148  1  0.12500000  0.86060000  0.88940000  1.0
  S2-  S149  1  0.62500000  0.86060000  0.88940000  1.0
  S2-  S150  1  0.12500000  0.36060000  0.88940000  1.0
  S2-  S151  1  0.62500000  0.36060000  0.88940000  1.0
  S2-  S152  1  0.37500000  0.86060000  0.38940000  1.0
  S2-  S153  1  0.87147103  0.85890502  0.39091920  1.0
  S2-  S154  1  0.37500000  0.36060000  0.38940000  1.0
  S2-  S155  1  0.87597600  0.36208957  0.39163322  1.0
  S2-  S156  1  0.37591948  0.86381270  0.88590042  1.0
  S2-  S157  1  0.87500000  0.86060000  0.88940000  1.0
  S2-  S158  1  0.37500000  0.36060000  0.88940000  1.0
  S2-  S159  1  0.87500000  0.36060000  0.88940000  1.0
