# generated using pymatgen
data_LiPS3
_symmetry_space_group_name_H-M   'P 1'
_cell_length_a   13.12454103
_cell_length_b   26.07006990
_cell_length_c   13.12454103
_cell_angle_alpha   119.47910550
_cell_angle_beta   115.54736054
_cell_angle_gamma   60.52089450
_symmetry_Int_Tables_number   1
_chemical_formula_structural   LiPS3
_chemical_formula_sum   'Li32 P32 S96'
_cell_volume   3295.52906045
_cell_formula_units_Z   32
loop_
 _symmetry_equiv_pos_site_id
 _symmetry_equiv_pos_as_xyz
  1  'x, y, z'
loop_
 _atom_type_symbol
 _atom_type_oxidation_number
  Li+  1.0
  P5+  5.0
  S2-  -2.0
loop_
 _atom_site_type_symbol
 _atom_site_label
 _atom_site_symmetry_multiplicity
 _atom_site_fract_x
 _atom_site_fract_y
 _atom_site_fract_z
 _atom_site_occupancy
  Li+  Li0  1  0.87965000  0.66666667  0.37965000  1.0
  Li+  Li1  1  0.87965000  0.16666667  0.37965000  1.0
  Li+  Li2  1  0.87965000  0.66666667  0.87965000  1.0
  Li+  Li3  1  0.87965000  0.16666667  0.87965000  1.0
  Li+  Li4  1  0.37965000  0.66666667  0.37965000  1.0
  Li+  Li5  1  0.37965000  0.16666667  0.37965000  1.0
  Li+  Li6  1  0.37965000  0.66666667  0.87965000  1.0
  Li+  Li7  1  0.37965000  0.16666667  0.87965000  1.0
  Li+  Li8  1  0.87965000  0.41666667  0.37965000  1.0
  Li+  Li9  1  0.87965000  0.91666667  0.37965000  1.0
  Li+  Li10  1  0.87965000  0.41666667  0.87965000  1.0
  Li+  Li11  1  0.87965000  0.91666667  0.87965000  1.0
  Li+  Li12  1  0.37965000  0.41666667  0.37965000  1.0
  Li+  Li13  1  0.37965000  0.91666667  0.37965000  1.0
  Li+  Li14  1  0.37965000  0.41666667  0.87965000  1.0
  Li+  Li15  1  0.37965000  0.91666667  0.87965000  1.0
  Li+  Li16  1  0.62035000  0.66666667  0.12035000  1.0
  Li+  Li17  1  0.62035000  0.16666667  0.12035000  1.0
  Li+  Li18  1  0.62035000  0.66666667  0.62035000  1.0
  Li+  Li19  1  0.62035000  0.16666667  0.62035000  1.0
  Li+  Li20  1  0.12035000  0.66666667  0.12035000  1.0
  Li+  Li21  1  0.12035000  0.16666667  0.12035000  1.0
  Li+  Li22  1  0.12035000  0.66666667  0.62035000  1.0
  Li+  Li23  1  0.12035000  0.16666667  0.62035000  1.0
  Li+  Li24  1  0.62035000  0.41666667  0.12035000  1.0
  Li+  Li25  1  0.62035000  0.91666667  0.12035000  1.0
  Li+  Li26  1  0.62035000  0.41666667  0.62035000  1.0
  Li+  Li27  1  0.62035000  0.91666667  0.62035000  1.0
  Li+  Li28  1  0.12035000  0.41666667  0.12035000  1.0
  Li+  Li29  1  0.12035000  0.91666667  0.12035000  1.0
  Li+  Li30  1  0.12035000  0.41666667  0.62035000  1.0
  Li+  Li31  1  0.12035000  0.91666667  0.62035000  1.0
  P5+  P32  1  0.82695000  0.52151667  0.17305000  1.0
  P5+  P33  1  0.82695000  0.02151667  0.17305000  1.0
  P5+  P34  1  0.82695000  0.52151667  0.67305000  1.0
  P5+  P35  1  0.82695000  0.02151667  0.67305000  1.0
  P5+  P36  1  0.32695000  0.52151667  0.17305000  1.0
  P5+  P37  1  0.32695000  0.02151667  0.17305000  1.0
  P5+  P38  1  0.32695000  0.52151667  0.67305000  1.0
  P5+  P39  1  0.32695000  0.02151667  0.67305000  1.0
  P5+  P40  1  0.82695000  0.27151667  0.17305000  1.0
  P5+  P41  1  0.82695000  0.77151667  0.17305000  1.0
  P5+  P42  1  0.82695000  0.27151667  0.67305000  1.0
  P5+  P43  1  0.82695000  0.77151667  0.67305000  1.0
  P5+  P44  1  0.32695000  0.27151667  0.17305000  1.0
  P5+  P45  1  0.32695000  0.77151667  0.17305000  1.0
  P5+  P46  1  0.32695000  0.27151667  0.67305000  1.0
  P5+  P47  1  0.32695000  0.77151667  0.67305000  1.0
  P5+  P48  1  0.67305000  0.56181667  0.32695000  1.0
  P5+  P49  1  0.67305000  0.06181667  0.32695000  1.0
  P5+  P50  1  0.67305000  0.56181667  0.82695000  1.0
  P5+  P51  1  0.67305000  0.06181667  0.82695000  1.0
  P5+  P52  1  0.17305000  0.56181667  0.32695000  1.0
  P5+  P53  1  0.17305000  0.06181667  0.32695000  1.0
  P5+  P54  1  0.17305000  0.56181667  0.82695000  1.0
  P5+  P55  1  0.17305000  0.06181667  0.82695000  1.0
  P5+  P56  1  0.67305000  0.31181667  0.32695000  1.0
  P5+  P57  1  0.67305000  0.81181667  0.32695000  1.0
  P5+  P58  1  0.67305000  0.31181667  0.82695000  1.0
  P5+  P59  1  0.67305000  0.81181667  0.82695000  1.0
  P5+  P60  1  0.17305000  0.31181667  0.32695000  1.0
  P5+  P61  1  0.17305000  0.81181667  0.32695000  1.0
  P5+  P62  1  0.17305000  0.31181667  0.82695000  1.0
  P5+  P63  1  0.17305000  0.81181667  0.82695000  1.0
  S2-  S64  1  0.65960000  0.43204167  0.34040000  1.0
  S2-  S65  1  0.65960000  0.93204167  0.34040000  1.0
  S2-  S66  1  0.65960000  0.43204167  0.84040000  1.0
  S2-  S67  1  0.65960000  0.93204167  0.84040000  1.0
  S2-  S68  1  0.15960000  0.43204167  0.34040000  1.0
  S2-  S69  1  0.15960000  0.93204167  0.34040000  1.0
  S2-  S70  1  0.15960000  0.43204167  0.84040000  1.0
  S2-  S71  1  0.15960000  0.93204167  0.84040000  1.0
  S2-  S72  1  0.65960000  0.18204167  0.34040000  1.0
  S2-  S73  1  0.65960000  0.68204167  0.34040000  1.0
  S2-  S74  1  0.65960000  0.18204167  0.84040000  1.0
  S2-  S75  1  0.65960000  0.68204167  0.84040000  1.0
  S2-  S76  1  0.15960000  0.18204167  0.34040000  1.0
  S2-  S77  1  0.15960000  0.68204167  0.34040000  1.0
  S2-  S78  1  0.15960000  0.18204167  0.84040000  1.0
  S2-  S79  1  0.15960000  0.68204167  0.84040000  1.0
  S2-  S80  1  0.84040000  0.65129167  0.15960000  1.0
  S2-  S81  1  0.84040000  0.15129167  0.15960000  1.0
  S2-  S82  1  0.84040000  0.65129167  0.65960000  1.0
  S2-  S83  1  0.84040000  0.15129167  0.65960000  1.0
  S2-  S84  1  0.34040000  0.65129167  0.15960000  1.0
  S2-  S85  1  0.34040000  0.15129167  0.15960000  1.0
  S2-  S86  1  0.34040000  0.65129167  0.65960000  1.0
  S2-  S87  1  0.34040000  0.15129167  0.65960000  1.0
  S2-  S88  1  0.84040000  0.40129167  0.15960000  1.0
  S2-  S89  1  0.84040000  0.90129167  0.15960000  1.0
  S2-  S90  1  0.84040000  0.40129167  0.65960000  1.0
  S2-  S91  1  0.84040000  0.90129167  0.65960000  1.0
  S2-  S92  1  0.34040000  0.40129167  0.15960000  1.0
  S2-  S93  1  0.34040000  0.90129167  0.15960000  1.0
  S2-  S94  1  0.34040000  0.40129167  0.65960000  1.0
  S2-  S95  1  0.34040000  0.90129167  0.65960000  1.0
  S2-  S96  1  0.84890000  0.58514167  0.15110000  1.0
  S2-  S97  1  0.84890000  0.08514167  0.15110000  1.0
  S2-  S98  1  0.84890000  0.58514167  0.65110000  1.0
  S2-  S99  1  0.84890000  0.08514167  0.65110000  1.0
  S2-  S100  1  0.34890000  0.58514167  0.15110000  1.0
  S2-  S101  1  0.34890000  0.08514167  0.15110000  1.0
  S2-  S102  1  0.34890000  0.58514167  0.65110000  1.0
  S2-  S103  1  0.34890000  0.08514167  0.65110000  1.0
  S2-  S104  1  0.84890000  0.33514167  0.15110000  1.0
  S2-  S105  1  0.84890000  0.83514167  0.15110000  1.0
  S2-  S106  1  0.84890000  0.33514167  0.65110000  1.0
  S2-  S107  1  0.84890000  0.83514167  0.65110000  1.0
  S2-  S108  1  0.34890000  0.33514167  0.15110000  1.0
  S2-  S109  1  0.34890000  0.83514167  0.15110000  1.0
  S2-  S110  1  0.34890000  0.33514167  0.65110000  1.0
  S2-  S111  1  0.34890000  0.83514167  0.65110000  1.0
  S2-  S112  1  0.65110000  0.49819167  0.34890000  1.0
  S2-  S113  1  0.65110000  0.99819167  0.34890000  1.0
  S2-  S114  1  0.65110000  0.49819167  0.84890000  1.0
  S2-  S115  1  0.65110000  0.99819167  0.84890000  1.0
  S2-  S116  1  0.15110000  0.49819167  0.34890000  1.0
  S2-  S117  1  0.15110000  0.99819167  0.34890000  1.0
  S2-  S118  1  0.15110000  0.49819167  0.84890000  1.0
  S2-  S119  1  0.15110000  0.99819167  0.84890000  1.0
  S2-  S120  1  0.65110000  0.24819167  0.34890000  1.0
  S2-  S121  1  0.65110000  0.74819167  0.34890000  1.0
  S2-  S122  1  0.65110000  0.24819167  0.84890000  1.0
  S2-  S123  1  0.65110000  0.74819167  0.84890000  1.0
  S2-  S124  1  0.15110000  0.24819167  0.34890000  1.0
  S2-  S125  1  0.15110000  0.74819167  0.34890000  1.0
  S2-  S126  1  0.15110000  0.24819167  0.84890000  1.0
  S2-  S127  1  0.15110000  0.74819167  0.84890000  1.0
  S2-  S128  1  0.86060000  0.54166667  0.36060000  1.0
  S2-  S129  1  0.86060000  0.04166667  0.36060000  1.0
  S2-  S130  1  0.86060000  0.54166667  0.86060000  1.0
  S2-  S131  1  0.86060000  0.04166667  0.86060000  1.0
  S2-  S132  1  0.36060000  0.54166667  0.36060000  1.0
  S2-  S133  1  0.36060000  0.04166667  0.36060000  1.0
  S2-  S134  1  0.36060000  0.54166667  0.86060000  1.0
  S2-  S135  1  0.36060000  0.04166667  0.86060000  1.0
  S2-  S136  1  0.86060000  0.29166667  0.36060000  1.0
  S2-  S137  1  0.86060000  0.79166667  0.36060000  1.0
  S2-  S138  1  0.86060000  0.29166667  0.86060000  1.0
  S2-  S139  1  0.86060000  0.79166667  0.86060000  1.0
  S2-  S140  1  0.36060000  0.29166667  0.36060000  1.0
  S2-  S141  1  0.36060000  0.79166667  0.36060000  1.0
  S2-  S142  1  0.36060000  0.29166667  0.86060000  1.0
  S2-  S143  1  0.36060000  0.79166667  0.86060000  1.0
  S2-  S144  1  0.63940000  0.54166667  0.13940000  1.0
  S2-  S145  1  0.63940000  0.04166667  0.13940000  1.0
  S2-  S146  1  0.63940000  0.54166667  0.63940000  1.0
  S2-  S147  1  0.63940000  0.04166667  0.63940000  1.0
  S2-  S148  1  0.13940000  0.54166667  0.13940000  1.0
  S2-  S149  1  0.13940000  0.04166667  0.13940000  1.0
  S2-  S150  1  0.13940000  0.54166667  0.63940000  1.0
  S2-  S151  1  0.13940000  0.04166667  0.63940000  1.0
  S2-  S152  1  0.63940000  0.29166667  0.13940000  1.0
  S2-  S153  1  0.63940000  0.79166667  0.13940000  1.0
  S2-  S154  1  0.63940000  0.29166667  0.63940000  1.0
  S2-  S155  1  0.63940000  0.79166667  0.63940000  1.0
  S2-  S156  1  0.13940000  0.29166667  0.13940000  1.0
  S2-  S157  1  0.13940000  0.79166667  0.13940000  1.0
  S2-  S158  1  0.13940000  0.29166667  0.63940000  1.0
  S2-  S159  1  0.13940000  0.79166667  0.63940000  1.0
