# generated using pymatgen
data_LiPS3
_symmetry_space_group_name_H-M   'P 1'
_cell_length_a   26.10040000
_cell_length_b   13.13981021
_cell_length_c   13.13981021
_cell_angle_alpha   64.45263946
_cell_angle_beta   60.52089450
_cell_angle_gamma   60.52089450
_symmetry_Int_Tables_number   1
_chemical_formula_structural   LiPS3
_chemical_formula_sum   'Li32 P32 S96'
_cell_volume   3307.04457033
_cell_formula_units_Z   32
loop_
 _symmetry_equiv_pos_site_id
 _symmetry_equiv_pos_as_xyz
  1  'x, y, z'
loop_
 _atom_type_symbol
 _atom_type_oxidation_number
  Li+  1.0
  P5+  5.0
  S2-  -2.0
loop_
 _atom_site_type_symbol
 _atom_site_label
 _atom_site_symmetry_multiplicity
 _atom_site_fract_x
 _atom_site_fract_y
 _atom_site_fract_z
 _atom_site_occupancy
  Li+  Li1  1  0.00000000  0.12035000  0.37965000  1.0
  Li+  Li1  1  0.50000000  0.12035000  0.37965000  1.0
  Li+  Li1  1  0.00000000  0.12035000  0.87965000  1.0
  Li+  Li1  1  0.50000000  0.12035000  0.87965000  1.0
  Li+  Li1  1  0.00000000  0.62035000  0.37965000  1.0
  Li+  Li1  1  0.50000000  0.62035000  0.37965000  1.0
  Li+  Li1  1  0.00000000  0.62035000  0.87965000  1.0
  Li+  Li1  1  0.50000000  0.62035000  0.87965000  1.0
  Li+  Li1  1  0.25000000  0.12035000  0.37965000  1.0
  Li+  Li1  1  0.75000000  0.12035000  0.37965000  1.0
  Li+  Li1  1  0.25000000  0.12035000  0.87965000  1.0
  Li+  Li1  1  0.75000000  0.12035000  0.87965000  1.0
  Li+  Li1  1  0.25000000  0.62035000  0.37965000  1.0
  Li+  Li1  1  0.75000000  0.62035000  0.37965000  1.0
  Li+  Li1  1  0.25000000  0.62035000  0.87965000  1.0
  Li+  Li1  1  0.75000000  0.62035000  0.87965000  1.0
  Li+  Li1  1  0.00000000  0.37965000  0.12035000  1.0
  Li+  Li1  1  0.50000000  0.37965000  0.12035000  1.0
  Li+  Li1  1  0.00000000  0.37965000  0.62035000  1.0
  Li+  Li1  1  0.50000000  0.37965000  0.62035000  1.0
  Li+  Li1  1  0.00000000  0.87965000  0.12035000  1.0
  Li+  Li1  1  0.50000000  0.87965000  0.12035000  1.0
  Li+  Li1  1  0.00000000  0.87965000  0.62035000  1.0
  Li+  Li1  1  0.50000000  0.87965000  0.62035000  1.0
  Li+  Li1  1  0.25000000  0.37965000  0.12035000  1.0
  Li+  Li1  1  0.75000000  0.37965000  0.12035000  1.0
  Li+  Li1  1  0.25000000  0.37965000  0.62035000  1.0
  Li+  Li1  1  0.75000000  0.37965000  0.62035000  1.0
  Li+  Li1  1  0.25000000  0.87965000  0.12035000  1.0
  Li+  Li1  1  0.75000000  0.87965000  0.12035000  1.0
  Li+  Li1  1  0.25000000  0.87965000  0.62035000  1.0
  Li+  Li1  1  0.75000000  0.87965000  0.62035000  1.0
  P5+  P1  1  0.14515000  0.17305000  0.17305000  1.0
  P5+  P1  1  0.64515000  0.17305000  0.17305000  1.0
  P5+  P1  1  0.14515000  0.17305000  0.67305000  1.0
  P5+  P1  1  0.64515000  0.17305000  0.67305000  1.0
  P5+  P1  1  0.14515000  0.67305000  0.17305000  1.0
  P5+  P1  1  0.64515000  0.67305000  0.17305000  1.0
  P5+  P1  1  0.14515000  0.67305000  0.67305000  1.0
  P5+  P1  1  0.64515000  0.67305000  0.67305000  1.0
  P5+  P1  1  0.39515000  0.17305000  0.17305000  1.0
  P5+  P1  1  0.89515000  0.17305000  0.17305000  1.0
  P5+  P1  1  0.39515000  0.17305000  0.67305000  1.0
  P5+  P1  1  0.89515000  0.17305000  0.67305000  1.0
  P5+  P1  1  0.39515000  0.67305000  0.17305000  1.0
  P5+  P1  1  0.89515000  0.67305000  0.17305000  1.0
  P5+  P1  1  0.39515000  0.67305000  0.67305000  1.0
  P5+  P1  1  0.89515000  0.67305000  0.67305000  1.0
  P5+  P1  1  0.10485000  0.32695000  0.32695000  1.0
  P5+  P1  1  0.60485000  0.32695000  0.32695000  1.0
  P5+  P1  1  0.10485000  0.32695000  0.82695000  1.0
  P5+  P1  1  0.60485000  0.32695000  0.82695000  1.0
  P5+  P1  1  0.10485000  0.82695000  0.32695000  1.0
  P5+  P1  1  0.60485000  0.82695000  0.32695000  1.0
  P5+  P1  1  0.10485000  0.82695000  0.82695000  1.0
  P5+  P1  1  0.60485000  0.82695000  0.82695000  1.0
  P5+  P1  1  0.35485000  0.32695000  0.32695000  1.0
  P5+  P1  1  0.85485000  0.32695000  0.32695000  1.0
  P5+  P1  1  0.35485000  0.32695000  0.82695000  1.0
  P5+  P1  1  0.85485000  0.32695000  0.82695000  1.0
  P5+  P1  1  0.35485000  0.82695000  0.32695000  1.0
  P5+  P1  1  0.85485000  0.82695000  0.32695000  1.0
  P5+  P1  1  0.35485000  0.82695000  0.82695000  1.0
  P5+  P1  1  0.85485000  0.82695000  0.82695000  1.0
  S2-  S3  1  0.23462500  0.34040000  0.34040000  1.0
  S2-  S3  1  0.73462500  0.34040000  0.34040000  1.0
  S2-  S3  1  0.23462500  0.34040000  0.84040000  1.0
  S2-  S3  1  0.73462500  0.34040000  0.84040000  1.0
  S2-  S3  1  0.23462500  0.84040000  0.34040000  1.0
  S2-  S3  1  0.73462500  0.84040000  0.34040000  1.0
  S2-  S3  1  0.23462500  0.84040000  0.84040000  1.0
  S2-  S3  1  0.73462500  0.84040000  0.84040000  1.0
  S2-  S3  1  0.48462500  0.34040000  0.34040000  1.0
  S2-  S3  1  0.98462500  0.34040000  0.34040000  1.0
  S2-  S3  1  0.48462500  0.34040000  0.84040000  1.0
  S2-  S3  1  0.98462500  0.34040000  0.84040000  1.0
  S2-  S3  1  0.48462500  0.84040000  0.34040000  1.0
  S2-  S3  1  0.98462500  0.84040000  0.34040000  1.0
  S2-  S3  1  0.48462500  0.84040000  0.84040000  1.0
  S2-  S3  1  0.98462500  0.84040000  0.84040000  1.0
  S2-  S3  1  0.01537500  0.15960000  0.15960000  1.0
  S2-  S3  1  0.51537500  0.15960000  0.15960000  1.0
  S2-  S3  1  0.01537500  0.15960000  0.65960000  1.0
  S2-  S3  1  0.51537500  0.15960000  0.65960000  1.0
  S2-  S3  1  0.01537500  0.65960000  0.15960000  1.0
  S2-  S3  1  0.51537500  0.65960000  0.15960000  1.0
  S2-  S3  1  0.01537500  0.65960000  0.65960000  1.0
  S2-  S3  1  0.51537500  0.65960000  0.65960000  1.0
  S2-  S3  1  0.26537500  0.15960000  0.15960000  1.0
  S2-  S3  1  0.76537500  0.15960000  0.15960000  1.0
  S2-  S3  1  0.26537500  0.15960000  0.65960000  1.0
  S2-  S3  1  0.76537500  0.15960000  0.65960000  1.0
  S2-  S3  1  0.26537500  0.65960000  0.15960000  1.0
  S2-  S3  1  0.76537500  0.65960000  0.15960000  1.0
  S2-  S3  1  0.26537500  0.65960000  0.65960000  1.0
  S2-  S3  1  0.76537500  0.65960000  0.65960000  1.0
  S2-  S2  1  0.08152500  0.15110000  0.15110000  1.0
  S2-  S2  1  0.58152500  0.15110000  0.15110000  1.0
  S2-  S2  1  0.08152500  0.15110000  0.65110000  1.0
  S2-  S2  1  0.58152500  0.15110000  0.65110000  1.0
  S2-  S2  1  0.08152500  0.65110000  0.15110000  1.0
  S2-  S2  1  0.58152500  0.65110000  0.15110000  1.0
  S2-  S2  1  0.08152500  0.65110000  0.65110000  1.0
  S2-  S2  1  0.58152500  0.65110000  0.65110000  1.0
  S2-  S2  1  0.33152500  0.15110000  0.15110000  1.0
  S2-  S2  1  0.83152500  0.15110000  0.15110000  1.0
  S2-  S2  1  0.33152500  0.15110000  0.65110000  1.0
  S2-  S2  1  0.83152500  0.15110000  0.65110000  1.0
  S2-  S2  1  0.33152500  0.65110000  0.15110000  1.0
  S2-  S2  1  0.83152500  0.65110000  0.15110000  1.0
  S2-  S2  1  0.33152500  0.65110000  0.65110000  1.0
  S2-  S2  1  0.83152500  0.65110000  0.65110000  1.0
  S2-  S2  1  0.16847500  0.34890000  0.34890000  1.0
  S2-  S2  1  0.66847500  0.34890000  0.34890000  1.0
  S2-  S2  1  0.16847500  0.34890000  0.84890000  1.0
  S2-  S2  1  0.66847500  0.34890000  0.84890000  1.0
  S2-  S2  1  0.16847500  0.84890000  0.34890000  1.0
  S2-  S2  1  0.66847500  0.84890000  0.34890000  1.0
  S2-  S2  1  0.16847500  0.84890000  0.84890000  1.0
  S2-  S2  1  0.66847500  0.84890000  0.84890000  1.0
  S2-  S2  1  0.41847500  0.34890000  0.34890000  1.0
  S2-  S2  1  0.91847500  0.34890000  0.34890000  1.0
  S2-  S2  1  0.41847500  0.34890000  0.84890000  1.0
  S2-  S2  1  0.91847500  0.34890000  0.84890000  1.0
  S2-  S2  1  0.41847500  0.84890000  0.34890000  1.0
  S2-  S2  1  0.91847500  0.84890000  0.34890000  1.0
  S2-  S2  1  0.41847500  0.84890000  0.84890000  1.0
  S2-  S2  1  0.91847500  0.84890000  0.84890000  1.0
  S2-  S1  1  0.12500000  0.13940000  0.36060000  1.0
  S2-  S1  1  0.62500000  0.13940000  0.36060000  1.0
  S2-  S1  1  0.12500000  0.13940000  0.86060000  1.0
  S2-  S1  1  0.62500000  0.13940000  0.86060000  1.0
  S2-  S1  1  0.12500000  0.63940000  0.36060000  1.0
  S2-  S1  1  0.62500000  0.63940000  0.36060000  1.0
  S2-  S1  1  0.12500000  0.63940000  0.86060000  1.0
  S2-  S1  1  0.62500000  0.63940000  0.86060000  1.0
  S2-  S1  1  0.37500000  0.13940000  0.36060000  1.0
  S2-  S1  1  0.87500000  0.13940000  0.36060000  1.0
  S2-  S1  1  0.37500000  0.13940000  0.86060000  1.0
  S2-  S1  1  0.87500000  0.13940000  0.86060000  1.0
  S2-  S1  1  0.37500000  0.63940000  0.36060000  1.0
  S2-  S1  1  0.87500000  0.63940000  0.36060000  1.0
  S2-  S1  1  0.37500000  0.63940000  0.86060000  1.0
  S2-  S1  1  0.87500000  0.63940000  0.86060000  1.0
  S2-  S1  1  0.12500000  0.36060000  0.13940000  1.0
  S2-  S1  1  0.62500000  0.36060000  0.13940000  1.0
  S2-  S1  1  0.12500000  0.36060000  0.63940000  1.0
  S2-  S1  1  0.62500000  0.36060000  0.63940000  1.0
  S2-  S1  1  0.12500000  0.86060000  0.13940000  1.0
  S2-  S1  1  0.62500000  0.86060000  0.13940000  1.0
  S2-  S1  1  0.12500000  0.86060000  0.63940000  1.0
  S2-  S1  1  0.62500000  0.86060000  0.63940000  1.0
  S2-  S1  1  0.37500000  0.36060000  0.13940000  1.0
  S2-  S1  1  0.87500000  0.36060000  0.13940000  1.0
  S2-  S1  1  0.37500000  0.36060000  0.63940000  1.0
  S2-  S1  1  0.87500000  0.36060000  0.63940000  1.0
  S2-  S1  1  0.37500000  0.86060000  0.13940000  1.0
  S2-  S1  1  0.87500000  0.86060000  0.13940000  1.0
  S2-  S1  1  0.37500000  0.86060000  0.63940000  1.0
  S2-  S1  1  0.87500000  0.86060000  0.63940000  1.0
