# generated using pymatgen
data_SrLi6La2Ta2O12
_symmetry_space_group_name_H-M   'P 1'
_cell_length_a   22.22243702
_cell_length_b   11.11121851
_cell_length_c   11.11121851
_cell_angle_alpha   109.47122063
_cell_angle_beta   70.52877937
_cell_angle_gamma   70.52877937
_symmetry_Int_Tables_number   1
_chemical_formula_structural   SrLi6La2Ta2O12
_chemical_formula_sum   'Sr8 Li48 La16 Ta16 O96'
_cell_volume   2111.99638327
_cell_formula_units_Z   8
loop_
 _symmetry_equiv_pos_site_id
 _symmetry_equiv_pos_as_xyz
  1  'x, y, z'
loop_
 _atom_type_symbol
 _atom_type_oxidation_number
  Sr2+  2.0
  Li+  1.0
  La3+  3.0
  Ta5+  5.0
  O2-  -2.0
loop_
 _atom_site_type_symbol
 _atom_site_label
 _atom_site_symmetry_multiplicity
 _atom_site_fract_x
 _atom_site_fract_y
 _atom_site_fract_z
 _atom_site_occupancy
  Sr2+  Sr0  1  0.12500000  0.87500000  0.87500000  1.0
  Sr2+  Sr1  1  0.62500000  0.87500000  0.87500000  1.0
  Sr2+  Sr2  1  0.06250000  0.62500000  0.00000000  1.0
  Sr2+  Sr3  1  0.56250000  0.62500000  0.00000000  1.0
  Sr2+  Sr4  1  0.06250000  0.25000000  0.87500000  1.0
  Sr2+  Sr5  1  0.56092983  0.24920769  0.87395007  1.0
  Sr2+  Sr6  1  0.43929129  0.75285471  0.62202126  1.0
  Sr2+  Sr7  1  0.93750000  0.75000000  0.62500000  1.0
  Li+  Li8  1  0.12500000  0.62500000  0.62500000  1.0
  Li+  Li9  1  0.62500000  0.62500000  0.62500000  1.0
  Li+  Li10  1  0.31250000  0.75000000  0.87500000  1.0
  Li+  Li11  1  0.81115678  0.75224888  0.87920580  1.0
  Li+  Li12  1  0.12857265  0.12167826  0.12148029  1.0
  Li+  Li13  1  0.62500000  0.12500000  0.12500000  1.0
  Li+  Li14  1  0.37500000  0.37500000  0.87500000  1.0
  Li+  Li15  1  0.87500000  0.37500000  0.87500000  1.0
  Li+  Li16  1  0.31250000  0.62500000  0.50000000  1.0
  Li+  Li17  1  0.81250000  0.62500000  0.50000000  1.0
  Li+  Li18  1  0.18437273  0.24902083  0.62203014  1.0
  Li+  Li19  1  0.68750000  0.25000000  0.62500000  1.0
  Li+  Li20  1  0.05490250  0.94716460  0.45181256  1.0
  Li+  Li21  1  0.55569000  0.94431000  0.44431000  1.0
  Li+  Li22  1  0.19269214  0.30388963  0.80362504  1.0
  Li+  Li23  1  0.69431000  0.30569000  0.80569000  1.0
  Li+  Li24  1  0.12500000  0.19431000  0.55569000  1.0
  Li+  Li25  1  0.62500000  0.19431000  0.55569000  1.0
  Li+  Li26  1  0.12500000  0.55569000  0.19431000  1.0
  Li+  Li27  1  0.62500000  0.55569000  0.19431000  1.0
  Li+  Li28  1  0.40284500  0.30569000  0.00000000  1.0
  Li+  Li29  1  0.89886208  0.30410327  0.99701752  1.0
  Li+  Li30  1  0.02784500  0.19431000  0.13862000  1.0
  Li+  Li31  1  0.52784500  0.19431000  0.13862000  1.0
  Li+  Li32  1  0.02784500  0.75000000  0.80569000  1.0
  Li+  Li33  1  0.52784500  0.75000000  0.80569000  1.0
  Li+  Li34  1  0.34715500  0.75000000  0.44431000  1.0
  Li+  Li35  1  0.84715500  0.75000000  0.44431000  1.0
  Li+  Li36  1  0.22215500  0.61138000  0.55569000  1.0
  Li+  Li37  1  0.72350884  0.61176551  0.55457952  1.0
  Li+  Li38  1  0.40284500  0.88862000  0.19431000  1.0
  Li+  Li39  1  0.90284500  0.88862000  0.19431000  1.0
  Li+  Li40  1  0.44431000  0.05569000  0.05569000  1.0
  Li+  Li41  1  0.94431000  0.05569000  0.05569000  1.0
  Li+  Li42  1  0.30569000  0.69431000  0.69431000  1.0
  Li+  Li43  1  0.80569000  0.69431000  0.69431000  1.0
  Li+  Li44  1  0.36890999  0.80543574  0.94971957  1.0
  Li+  Li45  1  0.87500000  0.80569000  0.94431000  1.0
  Li+  Li46  1  0.09715500  0.69431000  0.50000000  1.0
  Li+  Li47  1  0.59715500  0.69431000  0.50000000  1.0
  Li+  Li48  1  0.27784500  0.05569000  0.50000000  1.0
  Li+  Li49  1  0.77701579  0.05454774  0.50483317  1.0
  Li+  Li50  1  0.47241461  0.80576189  0.36109875  1.0
  Li+  Li51  1  0.97215500  0.80569000  0.36138000  1.0
  Li+  Li52  1  0.15284500  0.25000000  0.05569000  1.0
  Li+  Li53  1  0.64984917  0.24474021  0.05522857  1.0
  Li+  Li54  1  0.09715500  0.11138000  0.30569000  1.0
  Li+  Li55  1  0.60186028  0.11093999  0.30239086  1.0
  La3+  La56  1  0.37500000  0.62500000  0.12500000  1.0
  La3+  La57  1  0.87500000  0.62500000  0.12500000  1.0
  La3+  La58  1  0.18750000  0.87500000  0.50000000  1.0
  La3+  La59  1  0.68750000  0.87500000  0.50000000  1.0
  La3+  La60  1  0.18750000  0.75000000  0.12500000  1.0
  La3+  La61  1  0.68750000  0.75000000  0.12500000  1.0
  La3+  La62  1  0.12500000  0.37500000  0.37500000  1.0
  La3+  La63  1  0.62500000  0.37500000  0.37500000  1.0
  La3+  La64  1  0.37500000  0.12500000  0.62500000  1.0
  La3+  La65  1  0.87500000  0.12500000  0.62500000  1.0
  La3+  La66  1  0.43750000  0.37500000  0.50000000  1.0
  La3+  La67  1  0.93750000  0.37500000  0.50000000  1.0
  La3+  La68  1  0.31250000  0.12500000  0.00000000  1.0
  La3+  La69  1  0.81550617  0.12487692  0.00021444  1.0
  La3+  La70  1  0.31250000  0.25000000  0.37500000  1.0
  La3+  La71  1  0.81250000  0.25000000  0.37500000  1.0
  Ta5+  Ta72  1  0.00000000  0.50000000  0.75000000  1.0
  Ta5+  Ta73  1  0.50000000  0.50000000  0.75000000  1.0
  Ta5+  Ta74  1  0.25000000  0.50000000  0.25000000  1.0
  Ta5+  Ta75  1  0.75000000  0.50000000  0.25000000  1.0
  Ta5+  Ta76  1  0.99674619  0.99855876  0.24860583  1.0
  Ta5+  Ta77  1  0.50000000  0.00000000  0.25000000  1.0
  Ta5+  Ta78  1  0.25000000  0.00000000  0.75000000  1.0
  Ta5+  Ta79  1  0.75000000  0.00000000  0.75000000  1.0
  Ta5+  Ta80  1  0.00000000  0.50000000  0.25000000  1.0
  Ta5+  Ta81  1  0.50000000  0.50000000  0.25000000  1.0
  Ta5+  Ta82  1  0.25000000  0.50000000  0.75000000  1.0
  Ta5+  Ta83  1  0.75000000  0.50000000  0.75000000  1.0
  Ta5+  Ta84  1  0.25000000  0.00000000  0.25000000  1.0
  Ta5+  Ta85  1  0.75000000  0.00000000  0.25000000  1.0
  Ta5+  Ta86  1  0.00000000  0.00000000  0.75000000  1.0
  Ta5+  Ta87  1  0.50000000  0.00000000  0.75000000  1.0
  O2-  O88  1  0.45420484  0.41781188  0.85902079  1.0
  O2-  O89  1  0.95285000  0.41886000  0.86236000  1.0
  O2-  O90  1  0.29715000  0.51806000  0.07456000  1.0
  O2-  O91  1  0.79715000  0.51806000  0.07456000  1.0
  O2-  O92  1  0.09675000  0.98194000  0.13764000  1.0
  O2-  O93  1  0.59675000  0.98194000  0.13764000  1.0
  O2-  O94  1  0.15325000  0.08114000  0.92544000  1.0
  O2-  O95  1  0.65325000  0.08114000  0.92544000  1.0
  O2-  O96  1  0.00903000  0.88764000  0.05650000  1.0
  O2-  O97  1  0.50903000  0.88764000  0.05650000  1.0
  O2-  O98  1  0.45943000  0.67544000  0.94350000  1.0
  O2-  O99  1  0.95943000  0.67544000  0.94350000  1.0
  O2-  O100  1  0.29057000  0.61236000  0.34430000  1.0
  O2-  O101  1  0.79257839  0.61116490  0.34650479  1.0
  O2-  O102  1  0.24097000  0.82456000  0.65570000  1.0
  O2-  O103  1  0.74097000  0.82456000  0.65570000  1.0
  O2-  O104  1  0.16228000  0.69350000  0.33114000  1.0
  O2-  O105  1  0.66228000  0.69350000  0.33114000  1.0
  O2-  O106  1  0.05618000  0.80650000  0.23194000  1.0
  O2-  O107  1  0.55618000  0.80650000  0.23194000  1.0
  O2-  O108  1  0.08722971  0.40582481  0.76796675  1.0
  O2-  O109  1  0.58772000  0.40570000  0.76806000  1.0
  O2-  O110  1  0.19382000  0.09430000  0.66886000  1.0
  O2-  O111  1  0.69576151  0.09383963  0.67169800  1.0
  O2-  O112  1  0.04715000  0.58114000  0.63764000  1.0
  O2-  O113  1  0.54618099  0.58328277  0.63401458  1.0
  O2-  O114  1  0.20644221  0.48234081  0.42796541  1.0
  O2-  O115  1  0.70285000  0.48194000  0.42544000  1.0
  O2-  O116  1  0.40346887  0.01639124  0.35701033  1.0
  O2-  O117  1  0.90325000  0.01806000  0.36236000  1.0
  O2-  O118  1  0.34675000  0.91886000  0.57456000  1.0
  O2-  O119  1  0.84072822  0.92160541  0.57224543  1.0
  O2-  O120  1  0.49097000  0.11236000  0.44350000  1.0
  O2-  O121  1  0.99097000  0.11236000  0.44350000  1.0
  O2-  O122  1  0.04057000  0.32456000  0.55650000  1.0
  O2-  O123  1  0.54057000  0.32456000  0.55650000  1.0
  O2-  O124  1  0.20943000  0.38764000  0.15570000  1.0
  O2-  O125  1  0.70638208  0.38827683  0.15384038  1.0
  O2-  O126  1  0.26516070  0.17320366  0.84666822  1.0
  O2-  O127  1  0.75669023  0.17330194  0.84666398  1.0
  O2-  O128  1  0.33891250  0.30537137  0.16637795  1.0
  O2-  O129  1  0.83772000  0.30650000  0.16886000  1.0
  O2-  O130  1  0.44098291  0.19180918  0.26764556  1.0
  O2-  O131  1  0.94382000  0.19350000  0.26806000  1.0
  O2-  O132  1  0.41228000  0.59430000  0.73194000  1.0
  O2-  O133  1  0.91018992  0.58976571  0.72856645  1.0
  O2-  O134  1  0.30595985  0.90460155  0.83441073  1.0
  O2-  O135  1  0.80618000  0.90570000  0.83114000  1.0
  O2-  O136  1  0.41228000  0.58114000  0.44350000  1.0
  O2-  O137  1  0.91228000  0.58114000  0.44350000  1.0
  O2-  O138  1  0.30618000  0.48194000  0.55650000  1.0
  O2-  O139  1  0.80618000  0.48194000  0.55650000  1.0
  O2-  O140  1  0.33772000  0.01806000  0.15570000  1.0
  O2-  O141  1  0.83772000  0.01806000  0.15570000  1.0
  O2-  O142  1  0.44823331  0.92034589  0.84347184  1.0
  O2-  O143  1  0.94382000  0.91886000  0.84430000  1.0
  O2-  O144  1  0.20285000  0.11236000  0.16886000  1.0
  O2-  O145  1  0.70285000  0.11236000  0.16886000  1.0
  O2-  O146  1  0.04715000  0.32456000  0.26806000  1.0
  O2-  O147  1  0.54354161  0.32546510  0.26789497  1.0
  O2-  O148  1  0.34381249  0.39051905  0.73253143  1.0
  O2-  O149  1  0.84476302  0.38669487  0.73113701  1.0
  O2-  O150  1  0.40325000  0.17544000  0.83114000  1.0
  O2-  O151  1  0.90325000  0.17544000  0.83114000  1.0
  O2-  O152  1  0.25903000  0.30650000  0.63764000  1.0
  O2-  O153  1  0.75534322  0.30400710  0.63978268  1.0
  O2-  O154  1  0.20943000  0.19350000  0.42544000  1.0
  O2-  O155  1  0.70943000  0.19350000  0.42544000  1.0
  O2-  O156  1  0.04057000  0.59430000  0.36236000  1.0
  O2-  O157  1  0.54057000  0.59430000  0.36236000  1.0
  O2-  O158  1  0.49097000  0.90570000  0.57456000  1.0
  O2-  O159  1  0.98946590  0.90723874  0.57202743  1.0
  O2-  O160  1  0.09019670  0.41653335  0.05649516  1.0
  O2-  O161  1  0.58831993  0.41824966  0.05515955  1.0
  O2-  O162  1  0.19294589  0.51605904  0.94192389  1.0
  O2-  O163  1  0.69382000  0.51806000  0.94350000  1.0
  O2-  O164  1  0.16588882  0.98640867  0.34172027  1.0
  O2-  O165  1  0.66228000  0.98194000  0.34430000  1.0
  O2-  O166  1  0.05618000  0.08114000  0.65570000  1.0
  O2-  O167  1  0.55618000  0.08114000  0.65570000  1.0
  O2-  O168  1  0.29715000  0.88764000  0.33114000  1.0
  O2-  O169  1  0.79715000  0.88764000  0.33114000  1.0
  O2-  O170  1  0.45285000  0.67544000  0.23194000  1.0
  O2-  O171  1  0.95285000  0.67544000  0.23194000  1.0
  O2-  O172  1  0.15325000  0.61236000  0.76806000  1.0
  O2-  O173  1  0.65325000  0.61236000  0.76806000  1.0
  O2-  O174  1  0.09675000  0.82456000  0.66886000  1.0
  O2-  O175  1  0.59534842  0.82388138  0.67304877  1.0
  O2-  O176  1  0.24005963  0.69244673  0.86271482  1.0
  O2-  O177  1  0.74097000  0.69350000  0.86236000  1.0
  O2-  O178  1  0.28404426  0.80983029  0.07502895  1.0
  O2-  O179  1  0.79057000  0.80650000  0.07456000  1.0
  O2-  O180  1  0.45943000  0.40570000  0.13764000  1.0
  O2-  O181  1  0.95878851  0.41102779  0.13755473  1.0
  O2-  O182  1  0.00903000  0.09430000  0.92544000  1.0
  O2-  O183  1  0.51057408  0.09013238  0.92690847  1.0
