# generated using pymatgen
data_SrLi6La2Ta2O12
_symmetry_space_group_name_H-M   'P 1'
_cell_length_a   11.18456910
_cell_length_b   22.36913821
_cell_length_c   11.18456910
_cell_angle_alpha   70.52877937
_cell_angle_beta   70.52877937
_cell_angle_gamma   109.47122063
_symmetry_Int_Tables_number   1
_chemical_formula_structural   SrLi6La2Ta2O12
_chemical_formula_sum   'Sr8 Li48 La16 Ta16 O96'
_cell_volume   2154.10007661
_cell_formula_units_Z   8
loop_
 _symmetry_equiv_pos_site_id
 _symmetry_equiv_pos_as_xyz
  1  'x, y, z'
loop_
 _atom_type_symbol
 _atom_type_oxidation_number
  Sr2+  2.0
  Li+  1.0
  La3+  3.0
  Ta5+  5.0
  O2-  -2.0
loop_
 _atom_site_type_symbol
 _atom_site_label
 _atom_site_symmetry_multiplicity
 _atom_site_fract_x
 _atom_site_fract_y
 _atom_site_fract_z
 _atom_site_occupancy
  Sr2+  Sr0  1  0.12500000  0.54166667  0.12500000  1.0
  Sr2+  Sr1  1  0.12500000  0.04166667  0.12500000  1.0
  Sr2+  Sr2  1  0.25000000  0.60416667  0.37500000  1.0
  Sr2+  Sr3  1  0.25000000  0.10416667  0.37500000  1.0
  Sr2+  Sr4  1  0.12500000  0.60416667  0.75000000  1.0
  Sr2+  Sr5  1  0.12500000  0.10416667  0.75000000  1.0
  Sr2+  Sr6  1  0.87500000  0.22916667  0.25000000  1.0
  Sr2+  Sr7  1  0.87500000  0.72916667  0.25000000  1.0
  Li+  Li8  1  0.87500000  0.54166667  0.37500000  1.0
  Li+  Li9  1  0.87500000  0.04166667  0.37500000  1.0
  Li+  Li10  1  0.12500000  0.35416667  0.25000000  1.0
  Li+  Li11  1  0.12500000  0.85416667  0.25000000  1.0
  Li+  Li12  1  0.37500000  0.54166667  0.87500000  1.0
  Li+  Li13  1  0.37500000  0.04166667  0.87500000  1.0
  Li+  Li14  1  0.12500000  0.29166667  0.62500000  1.0
  Li+  Li15  1  0.12500000  0.79166667  0.62500000  1.0
  Li+  Li16  1  0.75000000  0.35416667  0.37500000  1.0
  Li+  Li17  1  0.75000000  0.85416667  0.37500000  1.0
  Li+  Li18  1  0.87500000  0.47916667  0.75000000  1.0
  Li+  Li19  1  0.87500000  0.97916667  0.75000000  1.0
  Li+  Li20  1  0.69431000  0.61097667  0.05569000  1.0
  Li+  Li21  1  0.69431000  0.11097667  0.05569000  1.0
  Li+  Li22  1  0.05569000  0.47235667  0.69431000  1.0
  Li+  Li23  1  0.05569000  0.97235667  0.69431000  1.0
  Li+  Li24  1  0.80569000  0.54166667  0.80569000  1.0
  Li+  Li25  1  0.80569000  0.04166667  0.80569000  1.0
  Li+  Li26  1  0.44431000  0.54166667  0.44431000  1.0
  Li+  Li27  1  0.44431000  0.04166667  0.44431000  1.0
  Li+  Li28  1  0.25000000  0.26382167  0.69431000  1.0
  Li+  Li29  1  0.25000000  0.76382167  0.69431000  1.0
  Li+  Li30  1  0.38862000  0.63882167  0.80569000  1.0
  Li+  Li31  1  0.38862000  0.13882167  0.80569000  1.0
  Li+  Li32  1  0.05569000  0.63882167  0.25000000  1.0
  Li+  Li33  1  0.05569000  0.13882167  0.25000000  1.0
  Li+  Li34  1  0.69431000  0.31951167  0.25000000  1.0
  Li+  Li35  1  0.69431000  0.81951167  0.25000000  1.0
  Li+  Li36  1  0.80569000  0.44451167  0.38862000  1.0
  Li+  Li37  1  0.80569000  0.94451167  0.38862000  1.0
  Li+  Li38  1  0.44431000  0.26382167  0.11138000  1.0
  Li+  Li39  1  0.44431000  0.76382167  0.11138000  1.0
  Li+  Li40  1  0.30569000  0.22235667  0.94431000  1.0
  Li+  Li41  1  0.30569000  0.72235667  0.94431000  1.0
  Li+  Li42  1  0.94431000  0.36097667  0.30569000  1.0
  Li+  Li43  1  0.94431000  0.86097667  0.30569000  1.0
  Li+  Li44  1  0.19431000  0.29166667  0.19431000  1.0
  Li+  Li45  1  0.19431000  0.79166667  0.19431000  1.0
  Li+  Li46  1  0.75000000  0.56951167  0.30569000  1.0
  Li+  Li47  1  0.75000000  0.06951167  0.30569000  1.0
  Li+  Li48  1  0.75000000  0.38882167  0.94431000  1.0
  Li+  Li49  1  0.75000000  0.88882167  0.94431000  1.0
  Li+  Li50  1  0.61138000  0.19451167  0.19431000  1.0
  Li+  Li51  1  0.61138000  0.69451167  0.19431000  1.0
  Li+  Li52  1  0.30569000  0.51382167  0.75000000  1.0
  Li+  Li53  1  0.30569000  0.01382167  0.75000000  1.0
  Li+  Li54  1  0.55569000  0.56951167  0.88862000  1.0
  Li+  Li55  1  0.55569000  0.06951167  0.88862000  1.0
  La3+  La56  1  0.37500000  0.29166667  0.37500000  1.0
  La3+  La57  1  0.37500000  0.79166667  0.37500000  1.0
  La3+  La58  1  0.75000000  0.47916667  0.12500000  1.0
  La3+  La59  1  0.75000000  0.97916667  0.12500000  1.0
  La3+  La60  1  0.37500000  0.47916667  0.25000000  1.0
  La3+  La61  1  0.37500000  0.97916667  0.25000000  1.0
  La3+  La62  1  0.62500000  0.54166667  0.62500000  1.0
  La3+  La63  1  0.62500000  0.04166667  0.62500000  1.0
  La3+  La64  1  0.87500000  0.29166667  0.87500000  1.0
  La3+  La65  1  0.87500000  0.79166667  0.87500000  1.0
  La3+  La66  1  0.75000000  0.22916667  0.62500000  1.0
  La3+  La67  1  0.75000000  0.72916667  0.62500000  1.0
  La3+  La68  1  0.25000000  0.35416667  0.87500000  1.0
  La3+  La69  1  0.25000000  0.85416667  0.87500000  1.0
  La3+  La70  1  0.62500000  0.35416667  0.75000000  1.0
  La3+  La71  1  0.62500000  0.85416667  0.75000000  1.0
  Ta5+  Ta72  1  0.00000000  0.66666667  0.50000000  1.0
  Ta5+  Ta73  1  0.00000000  0.16666667  0.50000000  1.0
  Ta5+  Ta74  1  0.50000000  0.41666667  0.50000000  1.0
  Ta5+  Ta75  1  0.50000000  0.91666667  0.50000000  1.0
  Ta5+  Ta76  1  0.50000000  0.66666667  0.00000000  1.0
  Ta5+  Ta77  1  0.50000000  0.16666667  0.00000000  1.0
  Ta5+  Ta78  1  0.00000000  0.41666667  0.00000000  1.0
  Ta5+  Ta79  1  0.00000000  0.91666667  0.00000000  1.0
  Ta5+  Ta80  1  0.50000000  0.66666667  0.50000000  1.0
  Ta5+  Ta81  1  0.50000000  0.16666667  0.50000000  1.0
  Ta5+  Ta82  1  0.00000000  0.41666667  0.50000000  1.0
  Ta5+  Ta83  1  0.00000000  0.91666667  0.50000000  1.0
  Ta5+  Ta84  1  0.50000000  0.41666667  0.00000000  1.0
  Ta5+  Ta85  1  0.50000000  0.91666667  0.00000000  1.0
  Ta5+  Ta86  1  0.00000000  0.66666667  0.00000000  1.0
  Ta5+  Ta87  1  0.00000000  0.16666667  0.00000000  1.0
  O2-  O88  1  0.11236000  0.21381667  0.58114000  1.0
  O2-  O89  1  0.11236000  0.71381667  0.58114000  1.0
  O2-  O90  1  0.32456000  0.36951667  0.48194000  1.0
  O2-  O91  1  0.32456000  0.86951667  0.48194000  1.0
  O2-  O92  1  0.38764000  0.56991667  0.01806000  1.0
  O2-  O93  1  0.38764000  0.06991667  0.01806000  1.0
  O2-  O94  1  0.17544000  0.51341667  0.91886000  1.0
  O2-  O95  1  0.17544000  0.01341667  0.91886000  1.0
  O2-  O96  1  0.30650000  0.65763667  0.11236000  1.0
  O2-  O97  1  0.30650000  0.15763667  0.11236000  1.0
  O2-  O98  1  0.19350000  0.20723667  0.32456000  1.0
  O2-  O99  1  0.19350000  0.70723667  0.32456000  1.0
  O2-  O100  1  0.59430000  0.37609667  0.38764000  1.0
  O2-  O101  1  0.59430000  0.87609667  0.38764000  1.0
  O2-  O102  1  0.90570000  0.42569667  0.17544000  1.0
  O2-  O103  1  0.90570000  0.92569667  0.17544000  1.0
  O2-  O104  1  0.58114000  0.50438667  0.30650000  1.0
  O2-  O105  1  0.58114000  0.00438667  0.30650000  1.0
  O2-  O106  1  0.48194000  0.61048667  0.19350000  1.0
  O2-  O107  1  0.48194000  0.11048667  0.19350000  1.0
  O2-  O108  1  0.01806000  0.57894667  0.59430000  1.0
  O2-  O109  1  0.01806000  0.07894667  0.59430000  1.0
  O2-  O110  1  0.91886000  0.47284667  0.90570000  1.0
  O2-  O111  1  0.91886000  0.97284667  0.90570000  1.0
  O2-  O112  1  0.88764000  0.61951667  0.41886000  1.0
  O2-  O113  1  0.88764000  0.11951667  0.41886000  1.0
  O2-  O114  1  0.67544000  0.46381667  0.51806000  1.0
  O2-  O115  1  0.67544000  0.96381667  0.51806000  1.0
  O2-  O116  1  0.61236000  0.26341667  0.98194000  1.0
  O2-  O117  1  0.61236000  0.76341667  0.98194000  1.0
  O2-  O118  1  0.82456000  0.31991667  0.08114000  1.0
  O2-  O119  1  0.82456000  0.81991667  0.08114000  1.0
  O2-  O120  1  0.69350000  0.17569667  0.88764000  1.0
  O2-  O121  1  0.69350000  0.67569667  0.88764000  1.0
  O2-  O122  1  0.80650000  0.62609667  0.67544000  1.0
  O2-  O123  1  0.80650000  0.12609667  0.67544000  1.0
  O2-  O124  1  0.40570000  0.45723667  0.61236000  1.0
  O2-  O125  1  0.40570000  0.95723667  0.61236000  1.0
  O2-  O126  1  0.09430000  0.40763667  0.82456000  1.0
  O2-  O127  1  0.09430000  0.90763667  0.82456000  1.0
  O2-  O128  1  0.41886000  0.32894667  0.69350000  1.0
  O2-  O129  1  0.41886000  0.82894667  0.69350000  1.0
  O2-  O130  1  0.51806000  0.22284667  0.80650000  1.0
  O2-  O131  1  0.51806000  0.72284667  0.80650000  1.0
  O2-  O132  1  0.98194000  0.25438667  0.40570000  1.0
  O2-  O133  1  0.98194000  0.75438667  0.40570000  1.0
  O2-  O134  1  0.08114000  0.36048667  0.09430000  1.0
  O2-  O135  1  0.08114000  0.86048667  0.09430000  1.0
  O2-  O136  1  0.69350000  0.25438667  0.41886000  1.0
  O2-  O137  1  0.69350000  0.75438667  0.41886000  1.0
  O2-  O138  1  0.80650000  0.36048667  0.51806000  1.0
  O2-  O139  1  0.80650000  0.86048667  0.51806000  1.0
  O2-  O140  1  0.40570000  0.32894667  0.98194000  1.0
  O2-  O141  1  0.40570000  0.82894667  0.98194000  1.0
  O2-  O142  1  0.09430000  0.22284667  0.08114000  1.0
  O2-  O143  1  0.09430000  0.72284667  0.08114000  1.0
  O2-  O144  1  0.41886000  0.46381667  0.88764000  1.0
  O2-  O145  1  0.41886000  0.96381667  0.88764000  1.0
  O2-  O146  1  0.51806000  0.61951667  0.67544000  1.0
  O2-  O147  1  0.51806000  0.11951667  0.67544000  1.0
  O2-  O148  1  0.98194000  0.31991667  0.61236000  1.0
  O2-  O149  1  0.98194000  0.81991667  0.61236000  1.0
  O2-  O150  1  0.08114000  0.26341667  0.82456000  1.0
  O2-  O151  1  0.08114000  0.76341667  0.82456000  1.0
  O2-  O152  1  0.88764000  0.40763667  0.69350000  1.0
  O2-  O153  1  0.88764000  0.90763667  0.69350000  1.0
  O2-  O154  1  0.67544000  0.45723667  0.80650000  1.0
  O2-  O155  1  0.67544000  0.95723667  0.80650000  1.0
  O2-  O156  1  0.61236000  0.62609667  0.40570000  1.0
  O2-  O157  1  0.61236000  0.12609667  0.40570000  1.0
  O2-  O158  1  0.82456000  0.17569667  0.09430000  1.0
  O2-  O159  1  0.82456000  0.67569667  0.09430000  1.0
  O2-  O160  1  0.30650000  0.57894667  0.58114000  1.0
  O2-  O161  1  0.30650000  0.07894667  0.58114000  1.0
  O2-  O162  1  0.19350000  0.47284667  0.48194000  1.0
  O2-  O163  1  0.19350000  0.97284667  0.48194000  1.0
  O2-  O164  1  0.59430000  0.50438667  0.01806000  1.0
  O2-  O165  1  0.59430000  0.00438667  0.01806000  1.0
  O2-  O166  1  0.90570000  0.61048667  0.91886000  1.0
  O2-  O167  1  0.90570000  0.11048667  0.91886000  1.0
  O2-  O168  1  0.58114000  0.36951667  0.11236000  1.0
  O2-  O169  1  0.58114000  0.86951667  0.11236000  1.0
  O2-  O170  1  0.48194000  0.21381667  0.32456000  1.0
  O2-  O171  1  0.48194000  0.71381667  0.32456000  1.0
  O2-  O172  1  0.01806000  0.51341667  0.38764000  1.0
  O2-  O173  1  0.01806000  0.01341667  0.38764000  1.0
  O2-  O174  1  0.91886000  0.56991667  0.17544000  1.0
  O2-  O175  1  0.91886000  0.06991667  0.17544000  1.0
  O2-  O176  1  0.11236000  0.42569667  0.30650000  1.0
  O2-  O177  1  0.11236000  0.92569667  0.30650000  1.0
  O2-  O178  1  0.32456000  0.37609667  0.19350000  1.0
  O2-  O179  1  0.32456000  0.87609667  0.19350000  1.0
  O2-  O180  1  0.38764000  0.20723667  0.59430000  1.0
  O2-  O181  1  0.38764000  0.70723667  0.59430000  1.0
  O2-  O182  1  0.17544000  0.65763667  0.90570000  1.0
  O2-  O183  1  0.17544000  0.15763667  0.90570000  1.0
