# generated using pymatgen
data_SrLi6La2Ta2O12
_symmetry_space_group_name_H-M   'P 1'
_cell_length_a   22.22243702
_cell_length_b   11.11121851
_cell_length_c   11.11121851
_cell_angle_alpha   109.47122063
_cell_angle_beta   109.47122063
_cell_angle_gamma   109.47122063
_symmetry_Int_Tables_number   1
_chemical_formula_structural   SrLi6La2Ta2O12
_chemical_formula_sum   'Sr8 Li48 La16 Ta16 O96'
_cell_volume   2111.99638327
_cell_formula_units_Z   8
loop_
 _symmetry_equiv_pos_site_id
 _symmetry_equiv_pos_as_xyz
  1  'x, y, z'
loop_
 _atom_type_symbol
 _atom_type_oxidation_number
  Sr2+  2.0
  Li+  1.0
  La3+  3.0
  Ta5+  5.0
  O2-  -2.0
loop_
 _atom_site_type_symbol
 _atom_site_label
 _atom_site_symmetry_multiplicity
 _atom_site_fract_x
 _atom_site_fract_y
 _atom_site_fract_z
 _atom_site_occupancy
  Sr2+  Sr0  1  0.12500000  0.87500000  0.12500000  1.0
  Sr2+  Sr0  1  0.62500000  0.87500000  0.12500000  1.0
  Sr2+  Sr1  1  0.06250000  0.75000000  0.37500000  1.0
  Sr2+  Sr1  1  0.56250000  0.75000000  0.37500000  1.0
  Sr2+  Sr2  1  0.06250000  0.87500000  0.75000000  1.0
  Sr2+  Sr2  1  0.56250000  0.87500000  0.75000000  1.0
  Sr2+  Sr3  1  0.43750000  0.12500000  0.25000000  1.0
  Sr2+  Sr3  1  0.93750000  0.12500000  0.25000000  1.0
  Li+  Li4  1  0.12500000  0.12500000  0.37500000  1.0
  Li+  Li4  1  0.62500000  0.12500000  0.37500000  1.0
  Li+  Li5  1  0.31250000  0.87500000  0.25000000  1.0
  Li+  Li5  1  0.81250000  0.87500000  0.25000000  1.0
  Li+  Li6  1  0.12500000  0.62500000  0.87500000  1.0
  Li+  Li6  1  0.62500000  0.62500000  0.87500000  1.0
  Li+  Li7  1  0.37500000  0.87500000  0.62500000  1.0
  Li+  Li7  1  0.87500000  0.87500000  0.62500000  1.0
  Li+  Li8  1  0.31250000  0.25000000  0.37500000  1.0
  Li+  Li8  1  0.81250000  0.25000000  0.37500000  1.0
  Li+  Li9  1  0.18750000  0.12500000  0.75000000  1.0
  Li+  Li9  1  0.68750000  0.12500000  0.75000000  1.0
  Li+  Li10  1  0.05569000  0.30569000  0.05569000  1.0
  Li+  Li10  1  0.55569000  0.30569000  0.05569000  1.0
  Li+  Li11  1  0.19431000  0.94431000  0.69431000  1.0
  Li+  Li11  1  0.69431000  0.94431000  0.69431000  1.0
  Li+  Li12  1  0.12500000  0.19431000  0.80569000  1.0
  Li+  Li12  1  0.62500000  0.19431000  0.80569000  1.0
  Li+  Li13  1  0.12500000  0.55569000  0.44431000  1.0
  Li+  Li13  1  0.62500000  0.55569000  0.44431000  1.0
  Li+  Li14  1  0.40284500  0.75000000  0.69431000  1.0
  Li+  Li14  1  0.90284500  0.75000000  0.69431000  1.0
  Li+  Li15  1  0.02784500  0.61138000  0.80569000  1.0
  Li+  Li15  1  0.52784500  0.61138000  0.80569000  1.0
  Li+  Li16  1  0.02784500  0.94431000  0.25000000  1.0
  Li+  Li16  1  0.52784500  0.94431000  0.25000000  1.0
  Li+  Li17  1  0.34715500  0.30569000  0.25000000  1.0
  Li+  Li17  1  0.84715500  0.30569000  0.25000000  1.0
  Li+  Li18  1  0.22215500  0.19431000  0.38862000  1.0
  Li+  Li18  1  0.72215500  0.19431000  0.38862000  1.0
  Li+  Li19  1  0.40284500  0.55569000  0.11138000  1.0
  Li+  Li19  1  0.90284500  0.55569000  0.11138000  1.0
  Li+  Li20  1  0.44431000  0.69431000  0.94431000  1.0
  Li+  Li20  1  0.94431000  0.69431000  0.94431000  1.0
  Li+  Li21  1  0.30569000  0.05569000  0.30569000  1.0
  Li+  Li21  1  0.80569000  0.05569000  0.30569000  1.0
  Li+  Li22  1  0.37500000  0.80569000  0.19431000  1.0
  Li+  Li22  1  0.87500000  0.80569000  0.19431000  1.0
  Li+  Li23  1  0.09715500  0.25000000  0.30569000  1.0
  Li+  Li23  1  0.59715500  0.25000000  0.30569000  1.0
  Li+  Li24  1  0.27784500  0.25000000  0.94431000  1.0
  Li+  Li24  1  0.77784500  0.25000000  0.94431000  1.0
  Li+  Li25  1  0.47215500  0.38862000  0.19431000  1.0
  Li+  Li25  1  0.97215500  0.38862000  0.19431000  1.0
  Li+  Li26  1  0.15284500  0.69431000  0.75000000  1.0
  Li+  Li26  1  0.65284500  0.69431000  0.75000000  1.0
  Li+  Li27  1  0.09715500  0.44431000  0.88862000  1.0
  Li+  Li27  1  0.59715500  0.44431000  0.88862000  1.0
  La3+  La28  1  0.37500000  0.62500000  0.37500000  1.0
  La3+  La28  1  0.87500000  0.62500000  0.37500000  1.0
  La3+  La29  1  0.18750000  0.25000000  0.12500000  1.0
  La3+  La29  1  0.68750000  0.25000000  0.12500000  1.0
  La3+  La30  1  0.18750000  0.62500000  0.25000000  1.0
  La3+  La30  1  0.68750000  0.62500000  0.25000000  1.0
  La3+  La31  1  0.12500000  0.37500000  0.62500000  1.0
  La3+  La31  1  0.62500000  0.37500000  0.62500000  1.0
  La3+  La32  1  0.37500000  0.12500000  0.87500000  1.0
  La3+  La32  1  0.87500000  0.12500000  0.87500000  1.0
  La3+  La33  1  0.43750000  0.25000000  0.62500000  1.0
  La3+  La33  1  0.93750000  0.25000000  0.62500000  1.0
  La3+  La34  1  0.31250000  0.75000000  0.87500000  1.0
  La3+  La34  1  0.81250000  0.75000000  0.87500000  1.0
  La3+  La35  1  0.31250000  0.37500000  0.75000000  1.0
  La3+  La35  1  0.81250000  0.37500000  0.75000000  1.0
  Ta5+  Ta1  1  0.00000000  0.00000000  0.50000000  1.0
  Ta5+  Ta1  1  0.50000000  0.00000000  0.50000000  1.0
  Ta5+  Ta1  1  0.25000000  0.50000000  0.50000000  1.0
  Ta5+  Ta1  1  0.75000000  0.50000000  0.50000000  1.0
  Ta5+  Ta1  1  0.00000000  0.50000000  0.00000000  1.0
  Ta5+  Ta1  1  0.50000000  0.50000000  0.00000000  1.0
  Ta5+  Ta1  1  0.25000000  0.00000000  0.00000000  1.0
  Ta5+  Ta1  1  0.75000000  0.00000000  0.00000000  1.0
  Ta5+  Ta1  1  0.00000000  0.50000000  0.50000000  1.0
  Ta5+  Ta1  1  0.50000000  0.50000000  0.50000000  1.0
  Ta5+  Ta1  1  0.25000000  0.00000000  0.50000000  1.0
  Ta5+  Ta1  1  0.75000000  0.00000000  0.50000000  1.0
  Ta5+  Ta1  1  0.25000000  0.50000000  0.00000000  1.0
  Ta5+  Ta1  1  0.75000000  0.50000000  0.00000000  1.0
  Ta5+  Ta1  1  0.00000000  0.00000000  0.00000000  1.0
  Ta5+  Ta1  1  0.50000000  0.00000000  0.00000000  1.0
  O2-  O1  1  0.45285000  0.88764000  0.58114000  1.0
  O2-  O1  1  0.95285000  0.88764000  0.58114000  1.0
  O2-  O1  1  0.29715000  0.67544000  0.48194000  1.0
  O2-  O1  1  0.79715000  0.67544000  0.48194000  1.0
  O2-  O1  1  0.09675000  0.61236000  0.01806000  1.0
  O2-  O1  1  0.59675000  0.61236000  0.01806000  1.0
  O2-  O1  1  0.15325000  0.82456000  0.91886000  1.0
  O2-  O1  1  0.65325000  0.82456000  0.91886000  1.0
  O2-  O1  1  0.00903000  0.69350000  0.11236000  1.0
  O2-  O1  1  0.50903000  0.69350000  0.11236000  1.0
  O2-  O1  1  0.45943000  0.80650000  0.32456000  1.0
  O2-  O1  1  0.95943000  0.80650000  0.32456000  1.0
  O2-  O1  1  0.29057000  0.40570000  0.38764000  1.0
  O2-  O1  1  0.79057000  0.40570000  0.38764000  1.0
  O2-  O1  1  0.24097000  0.09430000  0.17544000  1.0
  O2-  O1  1  0.74097000  0.09430000  0.17544000  1.0
  O2-  O1  1  0.16228000  0.41886000  0.30650000  1.0
  O2-  O1  1  0.66228000  0.41886000  0.30650000  1.0
  O2-  O1  1  0.05618000  0.51806000  0.19350000  1.0
  O2-  O1  1  0.55618000  0.51806000  0.19350000  1.0
  O2-  O1  1  0.08772000  0.98194000  0.59430000  1.0
  O2-  O1  1  0.58772000  0.98194000  0.59430000  1.0
  O2-  O1  1  0.19382000  0.08114000  0.90570000  1.0
  O2-  O1  1  0.69382000  0.08114000  0.90570000  1.0
  O2-  O1  1  0.04715000  0.11236000  0.41886000  1.0
  O2-  O1  1  0.54715000  0.11236000  0.41886000  1.0
  O2-  O1  1  0.20285000  0.32456000  0.51806000  1.0
  O2-  O1  1  0.70285000  0.32456000  0.51806000  1.0
  O2-  O1  1  0.40325000  0.38764000  0.98194000  1.0
  O2-  O1  1  0.90325000  0.38764000  0.98194000  1.0
  O2-  O1  1  0.34675000  0.17544000  0.08114000  1.0
  O2-  O1  1  0.84675000  0.17544000  0.08114000  1.0
  O2-  O1  1  0.49097000  0.30650000  0.88764000  1.0
  O2-  O1  1  0.99097000  0.30650000  0.88764000  1.0
  O2-  O1  1  0.04057000  0.19350000  0.67544000  1.0
  O2-  O1  1  0.54057000  0.19350000  0.67544000  1.0
  O2-  O1  1  0.20943000  0.59430000  0.61236000  1.0
  O2-  O1  1  0.70943000  0.59430000  0.61236000  1.0
  O2-  O1  1  0.25903000  0.90570000  0.82456000  1.0
  O2-  O1  1  0.75903000  0.90570000  0.82456000  1.0
  O2-  O1  1  0.33772000  0.58114000  0.69350000  1.0
  O2-  O1  1  0.83772000  0.58114000  0.69350000  1.0
  O2-  O1  1  0.44382000  0.48194000  0.80650000  1.0
  O2-  O1  1  0.94382000  0.48194000  0.80650000  1.0
  O2-  O1  1  0.41228000  0.01806000  0.40570000  1.0
  O2-  O1  1  0.91228000  0.01806000  0.40570000  1.0
  O2-  O1  1  0.30618000  0.91886000  0.09430000  1.0
  O2-  O1  1  0.80618000  0.91886000  0.09430000  1.0
  O2-  O1  1  0.41228000  0.30650000  0.41886000  1.0
  O2-  O1  1  0.91228000  0.30650000  0.41886000  1.0
  O2-  O1  1  0.30618000  0.19350000  0.51806000  1.0
  O2-  O1  1  0.80618000  0.19350000  0.51806000  1.0
  O2-  O1  1  0.33772000  0.59430000  0.98194000  1.0
  O2-  O1  1  0.83772000  0.59430000  0.98194000  1.0
  O2-  O1  1  0.44382000  0.90570000  0.08114000  1.0
  O2-  O1  1  0.94382000  0.90570000  0.08114000  1.0
  O2-  O1  1  0.20285000  0.58114000  0.88764000  1.0
  O2-  O1  1  0.70285000  0.58114000  0.88764000  1.0
  O2-  O1  1  0.04715000  0.48194000  0.67544000  1.0
  O2-  O1  1  0.54715000  0.48194000  0.67544000  1.0
  O2-  O1  1  0.34675000  0.01806000  0.61236000  1.0
  O2-  O1  1  0.84675000  0.01806000  0.61236000  1.0
  O2-  O1  1  0.40325000  0.91886000  0.82456000  1.0
  O2-  O1  1  0.90325000  0.91886000  0.82456000  1.0
  O2-  O1  1  0.25903000  0.11236000  0.69350000  1.0
  O2-  O1  1  0.75903000  0.11236000  0.69350000  1.0
  O2-  O1  1  0.20943000  0.32456000  0.80650000  1.0
  O2-  O1  1  0.70943000  0.32456000  0.80650000  1.0
  O2-  O1  1  0.04057000  0.38764000  0.40570000  1.0
  O2-  O1  1  0.54057000  0.38764000  0.40570000  1.0
  O2-  O1  1  0.49097000  0.17544000  0.09430000  1.0
  O2-  O1  1  0.99097000  0.17544000  0.09430000  1.0
  O2-  O1  1  0.08772000  0.69350000  0.58114000  1.0
  O2-  O1  1  0.58772000  0.69350000  0.58114000  1.0
  O2-  O1  1  0.19382000  0.80650000  0.48194000  1.0
  O2-  O1  1  0.69382000  0.80650000  0.48194000  1.0
  O2-  O1  1  0.16228000  0.40570000  0.01806000  1.0
  O2-  O1  1  0.66228000  0.40570000  0.01806000  1.0
  O2-  O1  1  0.05618000  0.09430000  0.91886000  1.0
  O2-  O1  1  0.55618000  0.09430000  0.91886000  1.0
  O2-  O1  1  0.29715000  0.41886000  0.11236000  1.0
  O2-  O1  1  0.79715000  0.41886000  0.11236000  1.0
  O2-  O1  1  0.45285000  0.51806000  0.32456000  1.0
  O2-  O1  1  0.95285000  0.51806000  0.32456000  1.0
  O2-  O1  1  0.15325000  0.98194000  0.38764000  1.0
  O2-  O1  1  0.65325000  0.98194000  0.38764000  1.0
  O2-  O1  1  0.09675000  0.08114000  0.17544000  1.0
  O2-  O1  1  0.59675000  0.08114000  0.17544000  1.0
  O2-  O1  1  0.24097000  0.88764000  0.30650000  1.0
  O2-  O1  1  0.74097000  0.88764000  0.30650000  1.0
  O2-  O1  1  0.29057000  0.67544000  0.19350000  1.0
  O2-  O1  1  0.79057000  0.67544000  0.19350000  1.0
  O2-  O1  1  0.45943000  0.61236000  0.59430000  1.0
  O2-  O1  1  0.95943000  0.61236000  0.59430000  1.0
  O2-  O1  1  0.00903000  0.82456000  0.90570000  1.0
  O2-  O1  1  0.50903000  0.82456000  0.90570000  1.0
