# generated using pymatgen
data_Li5Nd3(SbO6)2
_symmetry_space_group_name_H-M   'P 1'
_cell_length_a   21.93188550
_cell_length_b   10.96594275
_cell_length_c   10.96594275
_cell_angle_alpha   109.47122063
_cell_angle_beta   70.52877937
_cell_angle_gamma   70.52877937
_symmetry_Int_Tables_number   1
_chemical_formula_structural   Li5Nd3(SbO6)2
_chemical_formula_sum   'Li40 Nd24 Sb16 O96'
_cell_volume   2030.23367795
_cell_formula_units_Z   8
loop_
 _symmetry_equiv_pos_site_id
 _symmetry_equiv_pos_as_xyz
  1  'x, y, z'
loop_
 _atom_type_symbol
 _atom_type_oxidation_number
  Li+  1.0
  Nd3+  3.0
  Sb5+  5.0
  O2-  -2.0
loop_
 _atom_site_type_symbol
 _atom_site_label
 _atom_site_symmetry_multiplicity
 _atom_site_fract_x
 _atom_site_fract_y
 _atom_site_fract_z
 _atom_site_occupancy
  Li+  Li0  1  0.19245000  0.29430000  0.77820000  1.0
  Li+  Li1  1  0.69660137  0.29470336  0.77540104  1.0
  Li+  Li2  1  0.23590000  0.61510000  0.54430000  1.0
  Li+  Li3  1  0.73590000  0.61510000  0.54430000  1.0
  Li+  Li4  1  0.45655000  0.82080000  0.36510000  1.0
  Li+  Li5  1  0.95792728  0.82276341  0.36404767  1.0
  Li+  Li6  1  0.08960000  0.70570000  0.48390000  1.0
  Li+  Li7  1  0.58887866  0.70543191  0.47766183  1.0
  Li+  Li8  1  0.30909616  0.68110548  0.66336872  1.0
  Li+  Li9  1  0.80594230  0.68197300  0.66536647  1.0
  Li+  Li10  1  0.38305000  0.82080000  0.95570000  1.0
  Li+  Li11  1  0.88305000  0.82080000  0.95570000  1.0
  Li+  Li12  1  0.36695000  0.47180000  0.33690000  1.0
  Li+  Li13  1  0.86695000  0.47180000  0.33690000  1.0
  Li+  Li14  1  0.14715000  0.23390000  0.07080000  1.0
  Li+  Li15  1  0.64715000  0.23390000  0.07080000  1.0
  Li+  Li16  1  0.10285000  0.11510000  0.27820000  1.0
  Li+  Li17  1  0.60285000  0.11510000  0.27820000  1.0
  Li+  Li18  1  0.01410000  0.20570000  0.13490000  1.0
  Li+  Li19  1  0.51410000  0.20570000  0.13490000  1.0
  Li+  Li20  1  0.33960000  0.58690000  0.86510000  1.0
  Li+  Li21  1  0.83960000  0.58690000  0.86510000  1.0
  Li+  Li22  1  0.11695000  0.17920000  0.54430000  1.0
  Li+  Li23  1  0.61695000  0.17920000  0.54430000  1.0
  Li+  Li24  1  0.39602931  0.88630042  0.22165148  1.0
  Li+  Li25  1  0.89715000  0.88490000  0.22180000  1.0
  Li+  Li26  1  0.31211494  0.62736813  0.49692227  1.0
  Li+  Li27  1  0.81250000  0.62500000  0.50000000  1.0
  Li+  Li28  1  0.06544205  0.74803065  0.37629088  1.0
  Li+  Li29  1  0.56250000  0.75000000  0.37500000  1.0
  Li+  Li30  1  0.18732517  0.24457473  0.62455625  1.0
  Li+  Li31  1  0.68750000  0.25000000  0.62500000  1.0
  Li+  Li32  1  0.37500000  0.37500000  0.87500000  1.0
  Li+  Li33  1  0.87500000  0.37500000  0.87500000  1.0
  Li+  Li34  1  0.06250000  0.12500000  0.50000000  1.0
  Li+  Li35  1  0.56250000  0.12500000  0.50000000  1.0
  Li+  Li36  1  0.31250000  0.75000000  0.87500000  1.0
  Li+  Li37  1  0.81250000  0.75000000  0.87500000  1.0
  Li+  Li38  1  0.12500000  0.62500000  0.62500000  1.0
  Li+  Li39  1  0.62500000  0.62500000  0.62500000  1.0
  Nd3+  Nd40  1  0.37500000  0.62500000  0.12500000  1.0
  Nd3+  Nd41  1  0.87500000  0.62500000  0.12500000  1.0
  Nd3+  Nd42  1  0.12500000  0.87500000  0.87500000  1.0
  Nd3+  Nd43  1  0.62500000  0.87500000  0.87500000  1.0
  Nd3+  Nd44  1  0.06250000  0.62500000  0.00000000  1.0
  Nd3+  Nd45  1  0.56250000  0.62500000  0.00000000  1.0
  Nd3+  Nd46  1  0.18750000  0.87500000  0.50000000  1.0
  Nd3+  Nd47  1  0.68750000  0.87500000  0.50000000  1.0
  Nd3+  Nd48  1  0.18750000  0.75000000  0.12500000  1.0
  Nd3+  Nd49  1  0.68475851  0.74839985  0.12394862  1.0
  Nd3+  Nd50  1  0.06250000  0.25000000  0.87500000  1.0
  Nd3+  Nd51  1  0.56250000  0.25000000  0.87500000  1.0
  Nd3+  Nd52  1  0.12500000  0.37500000  0.37500000  1.0
  Nd3+  Nd53  1  0.62500000  0.37500000  0.37500000  1.0
  Nd3+  Nd54  1  0.37169409  0.12387206  0.62057940  1.0
  Nd3+  Nd55  1  0.87282327  0.12364971  0.62429947  1.0
  Nd3+  Nd56  1  0.43750000  0.37500000  0.50000000  1.0
  Nd3+  Nd57  1  0.93750000  0.37500000  0.50000000  1.0
  Nd3+  Nd58  1  0.31250000  0.12500000  0.00000000  1.0
  Nd3+  Nd59  1  0.81250000  0.12500000  0.00000000  1.0
  Nd3+  Nd60  1  0.31250000  0.25000000  0.37500000  1.0
  Nd3+  Nd61  1  0.81250000  0.25000000  0.37500000  1.0
  Nd3+  Nd62  1  0.43750000  0.75000000  0.62500000  1.0
  Nd3+  Nd63  1  0.93750000  0.75000000  0.62500000  1.0
  Sb5+  Sb64  1  0.00000000  0.50000000  0.75000000  1.0
  Sb5+  Sb65  1  0.50000000  0.50000000  0.75000000  1.0
  Sb5+  Sb66  1  0.25000000  0.50000000  0.25000000  1.0
  Sb5+  Sb67  1  0.74959908  0.50396494  0.25106720  1.0
  Sb5+  Sb68  1  0.99729795  0.00317267  0.25106309  1.0
  Sb5+  Sb69  1  0.50000000  0.00000000  0.25000000  1.0
  Sb5+  Sb70  1  0.25013228  0.00040429  0.75171047  1.0
  Sb5+  Sb71  1  0.75000000  0.00000000  0.75000000  1.0
  Sb5+  Sb72  1  0.00055507  0.50557862  0.25147682  1.0
  Sb5+  Sb73  1  0.50000000  0.50000000  0.25000000  1.0
  Sb5+  Sb74  1  0.25000000  0.50000000  0.75000000  1.0
  Sb5+  Sb75  1  0.75059921  0.50231477  0.74854768  1.0
  Sb5+  Sb76  1  0.25109785  0.00204470  0.24963167  1.0
  Sb5+  Sb77  1  0.75000000  0.00000000  0.25000000  1.0
  Sb5+  Sb78  1  0.00000000  0.00000000  0.75000000  1.0
  Sb5+  Sb79  1  0.50000000  0.00000000  0.75000000  1.0
  O2-  O80  1  0.45232000  0.67439000  0.22757000  1.0
  O2-  O81  1  0.95410759  0.67327196  0.22414996  1.0
  O2-  O82  1  0.29768000  0.88221000  0.32903000  1.0
  O2-  O83  1  0.79768000  0.88221000  0.32903000  1.0
  O2-  O84  1  0.15159000  0.61779000  0.77243000  1.0
  O2-  O85  1  0.65159000  0.61779000  0.77243000  1.0
  O2-  O86  1  0.09841000  0.82561000  0.67097000  1.0
  O2-  O87  1  0.59841000  0.82561000  0.67097000  1.0
  O2-  O88  1  0.19110500  0.52243000  0.94682000  1.0
  O2-  O89  1  0.69110500  0.52243000  0.94682000  1.0
  O2-  O90  1  0.08719500  0.42097000  0.05318000  1.0
  O2-  O91  1  0.58719500  0.42097000  0.05318000  1.0
  O2-  O92  1  0.16280500  0.97757000  0.34536000  1.0
  O2-  O93  1  0.66280500  0.97757000  0.34536000  1.0
  O2-  O94  1  0.05889500  0.07903000  0.65464000  1.0
  O2-  O95  1  0.55889500  0.07903000  0.65464000  1.0
  O2-  O96  1  0.29295103  0.80011262  0.07487610  1.0
  O2-  O97  1  0.78951500  0.80318000  0.07561000  1.0
  O2-  O98  1  0.23878500  0.69682000  0.86779000  1.0
  O2-  O99  1  0.73857538  0.69926517  0.86234786  1.0
  O2-  O100  1  0.45898293  0.40536125  0.13370835  1.0
  O2-  O101  1  0.96048500  0.40464000  0.13221000  1.0
  O2-  O102  1  0.01121500  0.09536000  0.92439000  1.0
  O2-  O103  1  0.51091330  0.09592719  0.92312060  1.0
  O2-  O104  1  0.04768000  0.32561000  0.27243000  1.0
  O2-  O105  1  0.54768000  0.32561000  0.27243000  1.0
  O2-  O106  1  0.20033331  0.12019673  0.17176108  1.0
  O2-  O107  1  0.70446802  0.11725463  0.16805826  1.0
  O2-  O108  1  0.34841000  0.38221000  0.72757000  1.0
  O2-  O109  1  0.84841000  0.38221000  0.72757000  1.0
  O2-  O110  1  0.40159000  0.17439000  0.82903000  1.0
  O2-  O111  1  0.90324090  0.17286010  0.82822998  1.0
  O2-  O112  1  0.30818860  0.47464562  0.55186954  1.0
  O2-  O113  1  0.81045731  0.47459551  0.55283905  1.0
  O2-  O114  1  0.41280500  0.57903000  0.44682000  1.0
  O2-  O115  1  0.91280500  0.57903000  0.44682000  1.0
  O2-  O116  1  0.33719500  0.02243000  0.15464000  1.0
  O2-  O117  1  0.83719500  0.02243000  0.15464000  1.0
  O2-  O118  1  0.44110500  0.92097000  0.84536000  1.0
  O2-  O119  1  0.94110500  0.92097000  0.84536000  1.0
  O2-  O120  1  0.21048500  0.19682000  0.42439000  1.0
  O2-  O121  1  0.71048500  0.19682000  0.42439000  1.0
  O2-  O122  1  0.26121500  0.30318000  0.63221000  1.0
  O2-  O123  1  0.76121500  0.30318000  0.63221000  1.0
  O2-  O124  1  0.03951500  0.59536000  0.36779000  1.0
  O2-  O125  1  0.53951500  0.59536000  0.36779000  1.0
  O2-  O126  1  0.48834356  0.90368056  0.57644343  1.0
  O2-  O127  1  0.98878500  0.90464000  0.57561000  1.0
  O2-  O128  1  0.03951500  0.32561000  0.55318000  1.0
  O2-  O129  1  0.53951500  0.32561000  0.55318000  1.0
  O2-  O130  1  0.48714798  0.11593683  0.44449376  1.0
  O2-  O131  1  0.98745224  0.11818295  0.44588203  1.0
  O2-  O132  1  0.21048500  0.38221000  0.15464000  1.0
  O2-  O133  1  0.71048500  0.38221000  0.15464000  1.0
  O2-  O134  1  0.26121500  0.17439000  0.84536000  1.0
  O2-  O135  1  0.76406536  0.17386379  0.84795757  1.0
  O2-  O136  1  0.20232000  0.47757000  0.42439000  1.0
  O2-  O137  1  0.70271175  0.47610754  0.42488307  1.0
  O2-  O138  1  0.04768000  0.57903000  0.63221000  1.0
  O2-  O139  1  0.55219474  0.57831977  0.63393410  1.0
  O2-  O140  1  0.40159000  0.02243000  0.36779000  1.0
  O2-  O141  1  0.90065409  0.02489802  0.36587954  1.0
  O2-  O142  1  0.34649578  0.92224801  0.57896302  1.0
  O2-  O143  1  0.84841000  0.92097000  0.57561000  1.0
  O2-  O144  1  0.43977248  0.19332247  0.27244610  1.0
  O2-  O145  1  0.93680798  0.19759739  0.26916223  1.0
  O2-  O146  1  0.33719500  0.30318000  0.17097000  1.0
  O2-  O147  1  0.83970530  0.30653865  0.16689672  1.0
  O2-  O148  1  0.41280500  0.59536000  0.72757000  1.0
  O2-  O149  1  0.91280500  0.59536000  0.72757000  1.0
  O2-  O150  1  0.30889500  0.90464000  0.82903000  1.0
  O2-  O151  1  0.80996256  0.90580550  0.83032388  1.0
  O2-  O152  1  0.46191656  0.67377607  0.94698723  1.0
  O2-  O153  1  0.96048500  0.67439000  0.94682000  1.0
  O2-  O154  1  0.01121500  0.88221000  0.05318000  1.0
  O2-  O155  1  0.51121500  0.88221000  0.05318000  1.0
  O2-  O156  1  0.28951500  0.61779000  0.34536000  1.0
  O2-  O157  1  0.78951500  0.61779000  0.34536000  1.0
  O2-  O158  1  0.23878500  0.82561000  0.65464000  1.0
  O2-  O159  1  0.73878500  0.82561000  0.65464000  1.0
  O2-  O160  1  0.29768000  0.52243000  0.07561000  1.0
  O2-  O161  1  0.79768000  0.52243000  0.07561000  1.0
  O2-  O162  1  0.45232000  0.42097000  0.86779000  1.0
  O2-  O163  1  0.95232000  0.42097000  0.86779000  1.0
  O2-  O164  1  0.09841000  0.97757000  0.13221000  1.0
  O2-  O165  1  0.59841000  0.97757000  0.13221000  1.0
  O2-  O166  1  0.15159000  0.07903000  0.92439000  1.0
  O2-  O167  1  0.65068967  0.08234186  0.91993781  1.0
  O2-  O168  1  0.05886260  0.80151096  0.22871465  1.0
  O2-  O169  1  0.55989897  0.80375045  0.22515119  1.0
  O2-  O170  1  0.16280500  0.69682000  0.32903000  1.0
  O2-  O171  1  0.66280500  0.69682000  0.32903000  1.0
  O2-  O172  1  0.08719500  0.40464000  0.77243000  1.0
  O2-  O173  1  0.58719500  0.40464000  0.77243000  1.0
  O2-  O174  1  0.19110500  0.09536000  0.67097000  1.0
  O2-  O175  1  0.69110500  0.09536000  0.67097000  1.0
