# generated using pymatgen
data_Li5Nd3(SbO6)2
_symmetry_space_group_name_H-M   'P 1'
_cell_length_a   11.06637799
_cell_length_b   22.13275599
_cell_length_c   11.06637799
_cell_angle_alpha   70.52877937
_cell_angle_beta   70.52877937
_cell_angle_gamma   109.47122063
_symmetry_Int_Tables_number   1
_chemical_formula_structural   Li5Nd3(SbO6)2
_chemical_formula_sum   'Li40 Nd24 Sb16 O96'
_cell_volume   2086.52986697
_cell_formula_units_Z   8
loop_
 _symmetry_equiv_pos_site_id
 _symmetry_equiv_pos_as_xyz
  1  'x, y, z'
loop_
 _atom_type_symbol
 _atom_type_oxidation_number
  Li+  1.0
  Nd3+  3.0
  Sb5+  5.0
  O2-  -2.0
loop_
 _atom_site_type_symbol
 _atom_site_label
 _atom_site_symmetry_multiplicity
 _atom_site_fract_x
 _atom_site_fract_y
 _atom_site_fract_z
 _atom_site_occupancy
  Li+  Li0  1  0.02820000  0.47421667  0.70570000  1.0
  Li+  Li1  1  0.02820000  0.97421667  0.70570000  1.0
  Li+  Li2  1  0.79430000  0.43076667  0.38490000  1.0
  Li+  Li3  1  0.79430000  0.93076667  0.38490000  1.0
  Li+  Li4  1  0.61510000  0.21011667  0.17920000  1.0
  Li+  Li5  1  0.61510000  0.71011667  0.17920000  1.0
  Li+  Li6  1  0.73390000  0.57706667  0.29430000  1.0
  Li+  Li7  1  0.73390000  0.07706667  0.29430000  1.0
  Li+  Li8  1  0.91310000  0.35911667  0.32080000  1.0
  Li+  Li9  1  0.91310000  0.85911667  0.32080000  1.0
  Li+  Li10  1  0.20570000  0.28361667  0.17920000  1.0
  Li+  Li11  1  0.20570000  0.78361667  0.17920000  1.0
  Li+  Li12  1  0.58690000  0.29971667  0.52820000  1.0
  Li+  Li13  1  0.58690000  0.79971667  0.52820000  1.0
  Li+  Li14  1  0.32080000  0.51951667  0.76610000  1.0
  Li+  Li15  1  0.32080000  0.01951667  0.76610000  1.0
  Li+  Li16  1  0.52820000  0.56381667  0.88490000  1.0
  Li+  Li17  1  0.52820000  0.06381667  0.88490000  1.0
  Li+  Li18  1  0.38490000  0.65256667  0.79430000  1.0
  Li+  Li19  1  0.38490000  0.15256667  0.79430000  1.0
  Li+  Li20  1  0.11510000  0.32706667  0.41310000  1.0
  Li+  Li21  1  0.11510000  0.82706667  0.41310000  1.0
  Li+  Li22  1  0.79430000  0.54971667  0.82080000  1.0
  Li+  Li23  1  0.79430000  0.04971667  0.82080000  1.0
  Li+  Li24  1  0.47180000  0.26951667  0.11510000  1.0
  Li+  Li25  1  0.47180000  0.76951667  0.11510000  1.0
  Li+  Li26  1  0.75000000  0.35416667  0.37500000  1.0
  Li+  Li27  1  0.75000000  0.85416667  0.37500000  1.0
  Li+  Li28  1  0.62500000  0.60416667  0.25000000  1.0
  Li+  Li29  1  0.62500000  0.10416667  0.25000000  1.0
  Li+  Li30  1  0.87500000  0.47916667  0.75000000  1.0
  Li+  Li31  1  0.87500000  0.97916667  0.75000000  1.0
  Li+  Li32  1  0.12500000  0.29166667  0.62500000  1.0
  Li+  Li33  1  0.12500000  0.79166667  0.62500000  1.0
  Li+  Li34  1  0.75000000  0.60416667  0.87500000  1.0
  Li+  Li35  1  0.75000000  0.10416667  0.87500000  1.0
  Li+  Li36  1  0.12500000  0.35416667  0.25000000  1.0
  Li+  Li37  1  0.12500000  0.85416667  0.25000000  1.0
  Li+  Li38  1  0.87500000  0.54166667  0.37500000  1.0
  Li+  Li39  1  0.87500000  0.04166667  0.37500000  1.0
  Nd3+  Nd40  1  0.37500000  0.29166667  0.37500000  1.0
  Nd3+  Nd41  1  0.37500000  0.79166667  0.37500000  1.0
  Nd3+  Nd42  1  0.12500000  0.54166667  0.12500000  1.0
  Nd3+  Nd43  1  0.12500000  0.04166667  0.12500000  1.0
  Nd3+  Nd44  1  0.25000000  0.60416667  0.37500000  1.0
  Nd3+  Nd45  1  0.25000000  0.10416667  0.37500000  1.0
  Nd3+  Nd46  1  0.75000000  0.47916667  0.12500000  1.0
  Nd3+  Nd47  1  0.75000000  0.97916667  0.12500000  1.0
  Nd3+  Nd48  1  0.37500000  0.47916667  0.25000000  1.0
  Nd3+  Nd49  1  0.37500000  0.97916667  0.25000000  1.0
  Nd3+  Nd50  1  0.12500000  0.60416667  0.75000000  1.0
  Nd3+  Nd51  1  0.12500000  0.10416667  0.75000000  1.0
  Nd3+  Nd52  1  0.62500000  0.54166667  0.62500000  1.0
  Nd3+  Nd53  1  0.62500000  0.04166667  0.62500000  1.0
  Nd3+  Nd54  1  0.87500000  0.29166667  0.87500000  1.0
  Nd3+  Nd55  1  0.87500000  0.79166667  0.87500000  1.0
  Nd3+  Nd56  1  0.75000000  0.22916667  0.62500000  1.0
  Nd3+  Nd57  1  0.75000000  0.72916667  0.62500000  1.0
  Nd3+  Nd58  1  0.25000000  0.35416667  0.87500000  1.0
  Nd3+  Nd59  1  0.25000000  0.85416667  0.87500000  1.0
  Nd3+  Nd60  1  0.62500000  0.35416667  0.75000000  1.0
  Nd3+  Nd61  1  0.62500000  0.85416667  0.75000000  1.0
  Nd3+  Nd62  1  0.87500000  0.22916667  0.25000000  1.0
  Nd3+  Nd63  1  0.87500000  0.72916667  0.25000000  1.0
  Sb5+  Sb64  1  0.00000000  0.66666667  0.50000000  1.0
  Sb5+  Sb65  1  0.00000000  0.16666667  0.50000000  1.0
  Sb5+  Sb66  1  0.50000000  0.41666667  0.50000000  1.0
  Sb5+  Sb67  1  0.50000000  0.91666667  0.50000000  1.0
  Sb5+  Sb68  1  0.50000000  0.66666667  0.00000000  1.0
  Sb5+  Sb69  1  0.50000000  0.16666667  0.00000000  1.0
  Sb5+  Sb70  1  0.00000000  0.41666667  0.00000000  1.0
  Sb5+  Sb71  1  0.00000000  0.91666667  0.00000000  1.0
  Sb5+  Sb72  1  0.50000000  0.66666667  0.50000000  1.0
  Sb5+  Sb73  1  0.50000000  0.16666667  0.50000000  1.0
  Sb5+  Sb74  1  0.00000000  0.41666667  0.50000000  1.0
  Sb5+  Sb75  1  0.00000000  0.91666667  0.50000000  1.0
  Sb5+  Sb76  1  0.50000000  0.41666667  0.00000000  1.0
  Sb5+  Sb77  1  0.50000000  0.91666667  0.00000000  1.0
  Sb5+  Sb78  1  0.00000000  0.66666667  0.00000000  1.0
  Sb5+  Sb79  1  0.00000000  0.16666667  0.00000000  1.0
  O2-  O80  1  0.47757000  0.21434667  0.32561000  1.0
  O2-  O81  1  0.47757000  0.71434667  0.32561000  1.0
  O2-  O82  1  0.57903000  0.36898667  0.11779000  1.0
  O2-  O83  1  0.57903000  0.86898667  0.11779000  1.0
  O2-  O84  1  0.02243000  0.51507667  0.38221000  1.0
  O2-  O85  1  0.02243000  0.01507667  0.38221000  1.0
  O2-  O86  1  0.92097000  0.56825667  0.17439000  1.0
  O2-  O87  1  0.92097000  0.06825667  0.17439000  1.0
  O2-  O88  1  0.19682000  0.47556167  0.47757000  1.0
  O2-  O89  1  0.19682000  0.97556167  0.47757000  1.0
  O2-  O90  1  0.30318000  0.57947167  0.57903000  1.0
  O2-  O91  1  0.30318000  0.07947167  0.57903000  1.0
  O2-  O92  1  0.59536000  0.50386167  0.02243000  1.0
  O2-  O93  1  0.59536000  0.00386167  0.02243000  1.0
  O2-  O94  1  0.90464000  0.60777167  0.92097000  1.0
  O2-  O95  1  0.90464000  0.10777167  0.92097000  1.0
  O2-  O96  1  0.32561000  0.37715167  0.19682000  1.0
  O2-  O97  1  0.32561000  0.87715167  0.19682000  1.0
  O2-  O98  1  0.11779000  0.42788167  0.30318000  1.0
  O2-  O99  1  0.11779000  0.92788167  0.30318000  1.0
  O2-  O100  1  0.38221000  0.20618167  0.59536000  1.0
  O2-  O101  1  0.38221000  0.70618167  0.59536000  1.0
  O2-  O102  1  0.17439000  0.65545167  0.90464000  1.0
  O2-  O103  1  0.17439000  0.15545167  0.90464000  1.0
  O2-  O104  1  0.52243000  0.61898667  0.67439000  1.0
  O2-  O105  1  0.52243000  0.11898667  0.67439000  1.0
  O2-  O106  1  0.42097000  0.46434667  0.88221000  1.0
  O2-  O107  1  0.42097000  0.96434667  0.88221000  1.0
  O2-  O108  1  0.97757000  0.31825667  0.61779000  1.0
  O2-  O109  1  0.97757000  0.81825667  0.61779000  1.0
  O2-  O110  1  0.07903000  0.26507667  0.82561000  1.0
  O2-  O111  1  0.07903000  0.76507667  0.82561000  1.0
  O2-  O112  1  0.80318000  0.35777167  0.52243000  1.0
  O2-  O113  1  0.80318000  0.85777167  0.52243000  1.0
  O2-  O114  1  0.69682000  0.25386167  0.42097000  1.0
  O2-  O115  1  0.69682000  0.75386167  0.42097000  1.0
  O2-  O116  1  0.40464000  0.32947167  0.97757000  1.0
  O2-  O117  1  0.40464000  0.82947167  0.97757000  1.0
  O2-  O118  1  0.09536000  0.22556167  0.07903000  1.0
  O2-  O119  1  0.09536000  0.72556167  0.07903000  1.0
  O2-  O120  1  0.67439000  0.45618167  0.80318000  1.0
  O2-  O121  1  0.67439000  0.95618167  0.80318000  1.0
  O2-  O122  1  0.88221000  0.40545167  0.69682000  1.0
  O2-  O123  1  0.88221000  0.90545167  0.69682000  1.0
  O2-  O124  1  0.61779000  0.62715167  0.40464000  1.0
  O2-  O125  1  0.61779000  0.12715167  0.40464000  1.0
  O2-  O126  1  0.82561000  0.17788167  0.09536000  1.0
  O2-  O127  1  0.82561000  0.67788167  0.09536000  1.0
  O2-  O128  1  0.80318000  0.62715167  0.67439000  1.0
  O2-  O129  1  0.80318000  0.12715167  0.67439000  1.0
  O2-  O130  1  0.69682000  0.17788167  0.88221000  1.0
  O2-  O131  1  0.69682000  0.67788167  0.88221000  1.0
  O2-  O132  1  0.40464000  0.45618167  0.61779000  1.0
  O2-  O133  1  0.40464000  0.95618167  0.61779000  1.0
  O2-  O134  1  0.09536000  0.40545167  0.82561000  1.0
  O2-  O135  1  0.09536000  0.90545167  0.82561000  1.0
  O2-  O136  1  0.67439000  0.46434667  0.52243000  1.0
  O2-  O137  1  0.67439000  0.96434667  0.52243000  1.0
  O2-  O138  1  0.88221000  0.61898667  0.42097000  1.0
  O2-  O139  1  0.88221000  0.11898667  0.42097000  1.0
  O2-  O140  1  0.61779000  0.26507667  0.97757000  1.0
  O2-  O141  1  0.61779000  0.76507667  0.97757000  1.0
  O2-  O142  1  0.82561000  0.31825667  0.07903000  1.0
  O2-  O143  1  0.82561000  0.81825667  0.07903000  1.0
  O2-  O144  1  0.52243000  0.22556167  0.80318000  1.0
  O2-  O145  1  0.52243000  0.72556167  0.80318000  1.0
  O2-  O146  1  0.42097000  0.32947167  0.69682000  1.0
  O2-  O147  1  0.42097000  0.82947167  0.69682000  1.0
  O2-  O148  1  0.97757000  0.25386167  0.40464000  1.0
  O2-  O149  1  0.97757000  0.75386167  0.40464000  1.0
  O2-  O150  1  0.07903000  0.35777167  0.09536000  1.0
  O2-  O151  1  0.07903000  0.85777167  0.09536000  1.0
  O2-  O152  1  0.19682000  0.20618167  0.32561000  1.0
  O2-  O153  1  0.19682000  0.70618167  0.32561000  1.0
  O2-  O154  1  0.30318000  0.65545167  0.11779000  1.0
  O2-  O155  1  0.30318000  0.15545167  0.11779000  1.0
  O2-  O156  1  0.59536000  0.37715167  0.38221000  1.0
  O2-  O157  1  0.59536000  0.87715167  0.38221000  1.0
  O2-  O158  1  0.90464000  0.42788167  0.17439000  1.0
  O2-  O159  1  0.90464000  0.92788167  0.17439000  1.0
  O2-  O160  1  0.32561000  0.36898667  0.47757000  1.0
  O2-  O161  1  0.32561000  0.86898667  0.47757000  1.0
  O2-  O162  1  0.11779000  0.21434667  0.57903000  1.0
  O2-  O163  1  0.11779000  0.71434667  0.57903000  1.0
  O2-  O164  1  0.38221000  0.56825667  0.02243000  1.0
  O2-  O165  1  0.38221000  0.06825667  0.02243000  1.0
  O2-  O166  1  0.17439000  0.51507667  0.92097000  1.0
  O2-  O167  1  0.17439000  0.01507667  0.92097000  1.0
  O2-  O168  1  0.47757000  0.60777167  0.19682000  1.0
  O2-  O169  1  0.47757000  0.10777167  0.19682000  1.0
  O2-  O170  1  0.57903000  0.50386167  0.30318000  1.0
  O2-  O171  1  0.57903000  0.00386167  0.30318000  1.0
  O2-  O172  1  0.02243000  0.57947167  0.59536000  1.0
  O2-  O173  1  0.02243000  0.07947167  0.59536000  1.0
  O2-  O174  1  0.92097000  0.47556167  0.90464000  1.0
  O2-  O175  1  0.92097000  0.97556167  0.90464000  1.0
