# generated using pymatgen
data_Li5Nd3(SbO6)2
_symmetry_space_group_name_H-M   'P 1'
_cell_length_a   21.93188550
_cell_length_b   10.96594275
_cell_length_c   10.96594275
_cell_angle_alpha   109.47122063
_cell_angle_beta   109.47122063
_cell_angle_gamma   109.47122063
_symmetry_Int_Tables_number   1
_chemical_formula_structural   Li5Nd3(SbO6)2
_chemical_formula_sum   'Li40 Nd24 Sb16 O96'
_cell_volume   2030.23367795
_cell_formula_units_Z   8
loop_
 _symmetry_equiv_pos_site_id
 _symmetry_equiv_pos_as_xyz
  1  'x, y, z'
loop_
 _atom_type_symbol
 _atom_type_oxidation_number
  Li+  1.0
  Nd3+  3.0
  Sb5+  5.0
  O2-  -2.0
loop_
 _atom_site_type_symbol
 _atom_site_label
 _atom_site_symmetry_multiplicity
 _atom_site_fract_x
 _atom_site_fract_y
 _atom_site_fract_z
 _atom_site_occupancy
  Li+  Li0  1  0.19245000  0.97180000  0.70570000  1.0
  Li+  Li0  1  0.69245000  0.97180000  0.70570000  1.0
  Li+  Li1  1  0.23590000  0.20570000  0.38490000  1.0
  Li+  Li1  1  0.73590000  0.20570000  0.38490000  1.0
  Li+  Li2  1  0.45655000  0.38490000  0.17920000  1.0
  Li+  Li2  1  0.95655000  0.38490000  0.17920000  1.0
  Li+  Li3  1  0.08960000  0.26610000  0.29430000  1.0
  Li+  Li3  1  0.58960000  0.26610000  0.29430000  1.0
  Li+  Li4  1  0.30755000  0.08690000  0.32080000  1.0
  Li+  Li4  1  0.80755000  0.08690000  0.32080000  1.0
  Li+  Li5  1  0.38305000  0.79430000  0.17920000  1.0
  Li+  Li5  1  0.88305000  0.79430000  0.17920000  1.0
  Li+  Li6  1  0.36695000  0.41310000  0.52820000  1.0
  Li+  Li6  1  0.86695000  0.41310000  0.52820000  1.0
  Li+  Li7  1  0.14715000  0.67920000  0.76610000  1.0
  Li+  Li7  1  0.64715000  0.67920000  0.76610000  1.0
  Li+  Li8  1  0.10285000  0.47180000  0.88490000  1.0
  Li+  Li8  1  0.60285000  0.47180000  0.88490000  1.0
  Li+  Li9  1  0.01410000  0.61510000  0.79430000  1.0
  Li+  Li9  1  0.51410000  0.61510000  0.79430000  1.0
  Li+  Li10  1  0.33960000  0.88490000  0.41310000  1.0
  Li+  Li10  1  0.83960000  0.88490000  0.41310000  1.0
  Li+  Li11  1  0.11695000  0.20570000  0.82080000  1.0
  Li+  Li11  1  0.61695000  0.20570000  0.82080000  1.0
  Li+  Li12  1  0.39715000  0.52820000  0.11510000  1.0
  Li+  Li12  1  0.89715000  0.52820000  0.11510000  1.0
  Li+  Li13  1  0.31250000  0.25000000  0.37500000  1.0
  Li+  Li13  1  0.81250000  0.25000000  0.37500000  1.0
  Li+  Li14  1  0.06250000  0.37500000  0.25000000  1.0
  Li+  Li14  1  0.56250000  0.37500000  0.25000000  1.0
  Li+  Li15  1  0.18750000  0.12500000  0.75000000  1.0
  Li+  Li15  1  0.68750000  0.12500000  0.75000000  1.0
  Li+  Li16  1  0.37500000  0.87500000  0.62500000  1.0
  Li+  Li16  1  0.87500000  0.87500000  0.62500000  1.0
  Li+  Li17  1  0.06250000  0.25000000  0.87500000  1.0
  Li+  Li17  1  0.56250000  0.25000000  0.87500000  1.0
  Li+  Li18  1  0.31250000  0.87500000  0.25000000  1.0
  Li+  Li18  1  0.81250000  0.87500000  0.25000000  1.0
  Li+  Li19  1  0.12500000  0.12500000  0.37500000  1.0
  Li+  Li19  1  0.62500000  0.12500000  0.37500000  1.0
  Nd3+  Nd1  1  0.37500000  0.62500000  0.37500000  1.0
  Nd3+  Nd1  1  0.87500000  0.62500000  0.37500000  1.0
  Nd3+  Nd1  1  0.12500000  0.87500000  0.12500000  1.0
  Nd3+  Nd1  1  0.62500000  0.87500000  0.12500000  1.0
  Nd3+  Nd1  1  0.06250000  0.75000000  0.37500000  1.0
  Nd3+  Nd1  1  0.56250000  0.75000000  0.37500000  1.0
  Nd3+  Nd1  1  0.18750000  0.25000000  0.12500000  1.0
  Nd3+  Nd1  1  0.68750000  0.25000000  0.12500000  1.0
  Nd3+  Nd1  1  0.18750000  0.62500000  0.25000000  1.0
  Nd3+  Nd1  1  0.68750000  0.62500000  0.25000000  1.0
  Nd3+  Nd1  1  0.06250000  0.87500000  0.75000000  1.0
  Nd3+  Nd1  1  0.56250000  0.87500000  0.75000000  1.0
  Nd3+  Nd1  1  0.12500000  0.37500000  0.62500000  1.0
  Nd3+  Nd1  1  0.62500000  0.37500000  0.62500000  1.0
  Nd3+  Nd1  1  0.37500000  0.12500000  0.87500000  1.0
  Nd3+  Nd1  1  0.87500000  0.12500000  0.87500000  1.0
  Nd3+  Nd1  1  0.43750000  0.25000000  0.62500000  1.0
  Nd3+  Nd1  1  0.93750000  0.25000000  0.62500000  1.0
  Nd3+  Nd1  1  0.31250000  0.75000000  0.87500000  1.0
  Nd3+  Nd1  1  0.81250000  0.75000000  0.87500000  1.0
  Nd3+  Nd1  1  0.31250000  0.37500000  0.75000000  1.0
  Nd3+  Nd1  1  0.81250000  0.37500000  0.75000000  1.0
  Nd3+  Nd1  1  0.43750000  0.12500000  0.25000000  1.0
  Nd3+  Nd1  1  0.93750000  0.12500000  0.25000000  1.0
  Sb5+  Sb1  1  0.00000000  0.00000000  0.50000000  1.0
  Sb5+  Sb1  1  0.50000000  0.00000000  0.50000000  1.0
  Sb5+  Sb1  1  0.25000000  0.50000000  0.50000000  1.0
  Sb5+  Sb1  1  0.75000000  0.50000000  0.50000000  1.0
  Sb5+  Sb1  1  0.00000000  0.50000000  0.00000000  1.0
  Sb5+  Sb1  1  0.50000000  0.50000000  0.00000000  1.0
  Sb5+  Sb1  1  0.25000000  0.00000000  0.00000000  1.0
  Sb5+  Sb1  1  0.75000000  0.00000000  0.00000000  1.0
  Sb5+  Sb1  1  0.00000000  0.50000000  0.50000000  1.0
  Sb5+  Sb1  1  0.50000000  0.50000000  0.50000000  1.0
  Sb5+  Sb1  1  0.25000000  0.00000000  0.50000000  1.0
  Sb5+  Sb1  1  0.75000000  0.00000000  0.50000000  1.0
  Sb5+  Sb1  1  0.25000000  0.50000000  0.00000000  1.0
  Sb5+  Sb1  1  0.75000000  0.50000000  0.00000000  1.0
  Sb5+  Sb1  1  0.00000000  0.00000000  0.00000000  1.0
  Sb5+  Sb1  1  0.50000000  0.00000000  0.00000000  1.0
  O2-  O1  1  0.45232000  0.52243000  0.32561000  1.0
  O2-  O1  1  0.95232000  0.52243000  0.32561000  1.0
  O2-  O1  1  0.29768000  0.42097000  0.11779000  1.0
  O2-  O1  1  0.79768000  0.42097000  0.11779000  1.0
  O2-  O1  1  0.15159000  0.97757000  0.38221000  1.0
  O2-  O1  1  0.65159000  0.97757000  0.38221000  1.0
  O2-  O1  1  0.09841000  0.07903000  0.17439000  1.0
  O2-  O1  1  0.59841000  0.07903000  0.17439000  1.0
  O2-  O1  1  0.19110500  0.80318000  0.47757000  1.0
  O2-  O1  1  0.69110500  0.80318000  0.47757000  1.0
  O2-  O1  1  0.08719500  0.69682000  0.57903000  1.0
  O2-  O1  1  0.58719500  0.69682000  0.57903000  1.0
  O2-  O1  1  0.16280500  0.40464000  0.02243000  1.0
  O2-  O1  1  0.66280500  0.40464000  0.02243000  1.0
  O2-  O1  1  0.05889500  0.09536000  0.92097000  1.0
  O2-  O1  1  0.55889500  0.09536000  0.92097000  1.0
  O2-  O1  1  0.28951500  0.67439000  0.19682000  1.0
  O2-  O1  1  0.78951500  0.67439000  0.19682000  1.0
  O2-  O1  1  0.23878500  0.88221000  0.30318000  1.0
  O2-  O1  1  0.73878500  0.88221000  0.30318000  1.0
  O2-  O1  1  0.46048500  0.61779000  0.59536000  1.0
  O2-  O1  1  0.96048500  0.61779000  0.59536000  1.0
  O2-  O1  1  0.01121500  0.82561000  0.90464000  1.0
  O2-  O1  1  0.51121500  0.82561000  0.90464000  1.0
  O2-  O1  1  0.04768000  0.47757000  0.67439000  1.0
  O2-  O1  1  0.54768000  0.47757000  0.67439000  1.0
  O2-  O1  1  0.20232000  0.57903000  0.88221000  1.0
  O2-  O1  1  0.70232000  0.57903000  0.88221000  1.0
  O2-  O1  1  0.34841000  0.02243000  0.61779000  1.0
  O2-  O1  1  0.84841000  0.02243000  0.61779000  1.0
  O2-  O1  1  0.40159000  0.92097000  0.82561000  1.0
  O2-  O1  1  0.90159000  0.92097000  0.82561000  1.0
  O2-  O1  1  0.30889500  0.19682000  0.52243000  1.0
  O2-  O1  1  0.80889500  0.19682000  0.52243000  1.0
  O2-  O1  1  0.41280500  0.30318000  0.42097000  1.0
  O2-  O1  1  0.91280500  0.30318000  0.42097000  1.0
  O2-  O1  1  0.33719500  0.59536000  0.97757000  1.0
  O2-  O1  1  0.83719500  0.59536000  0.97757000  1.0
  O2-  O1  1  0.44110500  0.90464000  0.07903000  1.0
  O2-  O1  1  0.94110500  0.90464000  0.07903000  1.0
  O2-  O1  1  0.21048500  0.32561000  0.80318000  1.0
  O2-  O1  1  0.71048500  0.32561000  0.80318000  1.0
  O2-  O1  1  0.26121500  0.11779000  0.69682000  1.0
  O2-  O1  1  0.76121500  0.11779000  0.69682000  1.0
  O2-  O1  1  0.03951500  0.38221000  0.40464000  1.0
  O2-  O1  1  0.53951500  0.38221000  0.40464000  1.0
  O2-  O1  1  0.48878500  0.17439000  0.09536000  1.0
  O2-  O1  1  0.98878500  0.17439000  0.09536000  1.0
  O2-  O1  1  0.03951500  0.19682000  0.67439000  1.0
  O2-  O1  1  0.53951500  0.19682000  0.67439000  1.0
  O2-  O1  1  0.48878500  0.30318000  0.88221000  1.0
  O2-  O1  1  0.98878500  0.30318000  0.88221000  1.0
  O2-  O1  1  0.21048500  0.59536000  0.61779000  1.0
  O2-  O1  1  0.71048500  0.59536000  0.61779000  1.0
  O2-  O1  1  0.26121500  0.90464000  0.82561000  1.0
  O2-  O1  1  0.76121500  0.90464000  0.82561000  1.0
  O2-  O1  1  0.20232000  0.32561000  0.52243000  1.0
  O2-  O1  1  0.70232000  0.32561000  0.52243000  1.0
  O2-  O1  1  0.04768000  0.11779000  0.42097000  1.0
  O2-  O1  1  0.54768000  0.11779000  0.42097000  1.0
  O2-  O1  1  0.40159000  0.38221000  0.97757000  1.0
  O2-  O1  1  0.90159000  0.38221000  0.97757000  1.0
  O2-  O1  1  0.34841000  0.17439000  0.07903000  1.0
  O2-  O1  1  0.84841000  0.17439000  0.07903000  1.0
  O2-  O1  1  0.44110500  0.47757000  0.80318000  1.0
  O2-  O1  1  0.94110500  0.47757000  0.80318000  1.0
  O2-  O1  1  0.33719500  0.57903000  0.69682000  1.0
  O2-  O1  1  0.83719500  0.57903000  0.69682000  1.0
  O2-  O1  1  0.41280500  0.02243000  0.40464000  1.0
  O2-  O1  1  0.91280500  0.02243000  0.40464000  1.0
  O2-  O1  1  0.30889500  0.92097000  0.09536000  1.0
  O2-  O1  1  0.80889500  0.92097000  0.09536000  1.0
  O2-  O1  1  0.46048500  0.80318000  0.32561000  1.0
  O2-  O1  1  0.96048500  0.80318000  0.32561000  1.0
  O2-  O1  1  0.01121500  0.69682000  0.11779000  1.0
  O2-  O1  1  0.51121500  0.69682000  0.11779000  1.0
  O2-  O1  1  0.28951500  0.40464000  0.38221000  1.0
  O2-  O1  1  0.78951500  0.40464000  0.38221000  1.0
  O2-  O1  1  0.23878500  0.09536000  0.17439000  1.0
  O2-  O1  1  0.73878500  0.09536000  0.17439000  1.0
  O2-  O1  1  0.29768000  0.67439000  0.47757000  1.0
  O2-  O1  1  0.79768000  0.67439000  0.47757000  1.0
  O2-  O1  1  0.45232000  0.88221000  0.57903000  1.0
  O2-  O1  1  0.95232000  0.88221000  0.57903000  1.0
  O2-  O1  1  0.09841000  0.61779000  0.02243000  1.0
  O2-  O1  1  0.59841000  0.61779000  0.02243000  1.0
  O2-  O1  1  0.15159000  0.82561000  0.92097000  1.0
  O2-  O1  1  0.65159000  0.82561000  0.92097000  1.0
  O2-  O1  1  0.05889500  0.52243000  0.19682000  1.0
  O2-  O1  1  0.55889500  0.52243000  0.19682000  1.0
  O2-  O1  1  0.16280500  0.42097000  0.30318000  1.0
  O2-  O1  1  0.66280500  0.42097000  0.30318000  1.0
  O2-  O1  1  0.08719500  0.97757000  0.59536000  1.0
  O2-  O1  1  0.58719500  0.97757000  0.59536000  1.0
  O2-  O1  1  0.19110500  0.07903000  0.90464000  1.0
  O2-  O1  1  0.69110500  0.07903000  0.90464000  1.0
