# generated using pymatgen
data_LiTa2PO8
_symmetry_space_group_name_H-M   'P 1'
_cell_length_a   19.42800000
_cell_length_b   10.70100000
_cell_length_c   11.53500000
_cell_angle_alpha   90.00000000
_cell_angle_beta   90.00000000
_cell_angle_gamma   90.05000000
_symmetry_Int_Tables_number   1
_chemical_formula_structural   LiTa2PO8
_chemical_formula_sum   'Li16 Ta32 P16 O128'
_cell_volume   2398.11437485
_cell_formula_units_Z   16
loop_
 _symmetry_equiv_pos_site_id
 _symmetry_equiv_pos_as_xyz
  1  'x, y, z'
loop_
 _atom_type_symbol
 _atom_type_oxidation_number
  Li+  1.0
  Ta5+  5.0
  P5+  5.0
  O2-  -2.0
loop_
 _atom_site_type_symbol
 _atom_site_label
 _atom_site_symmetry_multiplicity
 _atom_site_fract_x
 _atom_site_fract_y
 _atom_site_fract_z
 _atom_site_occupancy
  Li+  Li0  1  0.05800130  0.10036498  0.13604917  1.0
  Li+  Li1  1  0.55600000  0.10000000  0.13700000  1.0
  Li+  Li2  1  0.44400000  0.40000000  0.13700000  1.0
  Li+  Li3  1  0.94110160  0.40312690  0.13809446  1.0
  Li+  Li4  1  0.05600000  0.60000000  0.36300000  1.0
  Li+  Li5  1  0.55050919  0.59863714  0.36353814  1.0
  Li+  Li6  1  0.37472277  0.64383199  0.39150741  1.0
  Li+  Li7  1  0.88026139  0.63880725  0.39550354  1.0
  Li+  Li8  1  0.37250000  0.36000000  0.60700000  1.0
  Li+  Li9  1  0.87250000  0.36000000  0.60700000  1.0
  Li+  Li10  1  0.12750000  0.14000000  0.60700000  1.0
  Li+  Li11  1  0.62750000  0.14000000  0.60700000  1.0
  Li+  Li12  1  0.12750000  0.64000000  0.89300000  1.0
  Li+  Li13  1  0.62813334  0.64167901  0.89513602  1.0
  Li+  Li14  1  0.37250000  0.86000000  0.89300000  1.0
  Li+  Li15  1  0.87250000  0.86000000  0.89300000  1.0
  Ta5+  Ta16  1  0.12400000  0.24500000  0.84700000  1.0
  Ta5+  Ta17  1  0.62585384  0.24347363  0.84878133  1.0
  Ta5+  Ta18  1  0.37600000  0.25500000  0.84700000  1.0
  Ta5+  Ta19  1  0.87600000  0.25500000  0.84700000  1.0
  Ta5+  Ta20  1  0.37600000  0.75500000  0.65300000  1.0
  Ta5+  Ta21  1  0.87600000  0.75500000  0.65300000  1.0
  Ta5+  Ta22  1  0.12400000  0.74500000  0.65300000  1.0
  Ta5+  Ta23  1  0.62772614  0.74119517  0.65309583  1.0
  Ta5+  Ta24  1  0.37400000  0.24500000  0.34700000  1.0
  Ta5+  Ta25  1  0.87400000  0.24500000  0.34700000  1.0
  Ta5+  Ta26  1  0.12618261  0.25786616  0.34595968  1.0
  Ta5+  Ta27  1  0.62560271  0.25219335  0.34471194  1.0
  Ta5+  Ta28  1  0.11991227  0.75995300  0.15949687  1.0
  Ta5+  Ta29  1  0.62600000  0.75500000  0.15300000  1.0
  Ta5+  Ta30  1  0.37379628  0.74330500  0.14986240  1.0
  Ta5+  Ta31  1  0.87400000  0.74500000  0.15300000  1.0
  Ta5+  Ta32  1  0.00000000  0.25000000  0.09600000  1.0
  Ta5+  Ta33  1  0.50000000  0.25000000  0.09600000  1.0
  Ta5+  Ta34  1  0.00000000  0.75000000  0.40400000  1.0
  Ta5+  Ta35  1  0.50000000  0.75000000  0.40400000  1.0
  Ta5+  Ta36  1  0.25000000  0.25000000  0.59600000  1.0
  Ta5+  Ta37  1  0.75000000  0.25000000  0.59600000  1.0
  Ta5+  Ta38  1  0.24819107  0.75039572  0.90614521  1.0
  Ta5+  Ta39  1  0.75067242  0.74755371  0.90034074  1.0
  Ta5+  Ta40  1  0.00000000  0.50000000  0.75000000  1.0
  Ta5+  Ta41  1  0.50000000  0.50000000  0.75000000  1.0
  Ta5+  Ta42  1  0.00000000  0.00000000  0.75000000  1.0
  Ta5+  Ta43  1  0.50000000  0.00000000  0.75000000  1.0
  Ta5+  Ta44  1  0.25000000  0.50000000  0.25000000  1.0
  Ta5+  Ta45  1  0.75000000  0.50000000  0.25000000  1.0
  Ta5+  Ta46  1  0.25000000  0.00000000  0.25000000  1.0
  Ta5+  Ta47  1  0.75375534  0.99944476  0.25182011  1.0
  P5+  P48  1  0.24450000  0.44000000  0.95800000  1.0
  P5+  P49  1  0.74450000  0.44000000  0.95800000  1.0
  P5+  P50  1  0.25550000  0.06000000  0.95800000  1.0
  P5+  P51  1  0.75550000  0.06000000  0.95800000  1.0
  P5+  P52  1  0.25550000  0.56000000  0.54200000  1.0
  P5+  P53  1  0.75550000  0.56000000  0.54200000  1.0
  P5+  P54  1  0.24450000  0.94000000  0.54200000  1.0
  P5+  P55  1  0.74361153  0.94437082  0.54362816  1.0
  P5+  P56  1  0.49450000  0.44000000  0.45800000  1.0
  P5+  P57  1  0.99450000  0.44000000  0.45800000  1.0
  P5+  P58  1  0.00686435  0.05786530  0.45772456  1.0
  P5+  P59  1  0.50550000  0.06000000  0.45800000  1.0
  P5+  P60  1  0.00550000  0.56000000  0.04200000  1.0
  P5+  P61  1  0.50381129  0.56072854  0.03911531  1.0
  P5+  P62  1  0.49450000  0.94000000  0.04200000  1.0
  P5+  P63  1  0.99450000  0.94000000  0.04200000  1.0
  O2-  O64  1  0.02571194  0.43609000  0.08706026  1.0
  O2-  O65  1  0.52900000  0.43400000  0.08500000  1.0
  O2-  O66  1  0.47100000  0.06600000  0.08500000  1.0
  O2-  O67  1  0.96652100  0.06778342  0.08820220  1.0
  O2-  O68  1  0.47100000  0.56600000  0.41500000  1.0
  O2-  O69  1  0.97100000  0.56600000  0.41500000  1.0
  O2-  O70  1  0.02900000  0.93400000  0.41500000  1.0
  O2-  O71  1  0.52900000  0.93400000  0.41500000  1.0
  O2-  O72  1  0.27900000  0.43400000  0.58500000  1.0
  O2-  O73  1  0.77900000  0.43400000  0.58500000  1.0
  O2-  O74  1  0.22100000  0.06600000  0.58500000  1.0
  O2-  O75  1  0.71912497  0.06406600  0.58274085  1.0
  O2-  O76  1  0.22100000  0.56600000  0.91500000  1.0
  O2-  O77  1  0.72100000  0.56600000  0.91500000  1.0
  O2-  O78  1  0.27900000  0.93400000  0.91500000  1.0
  O2-  O79  1  0.77900000  0.93400000  0.91500000  1.0
  O2-  O80  1  0.19100000  0.08700000  0.89000000  1.0
  O2-  O81  1  0.68765445  0.08787802  0.88954212  1.0
  O2-  O82  1  0.30958236  0.41444471  0.89062069  1.0
  O2-  O83  1  0.80900000  0.41300000  0.89000000  1.0
  O2-  O84  1  0.30900000  0.91300000  0.61000000  1.0
  O2-  O85  1  0.80900000  0.91300000  0.61000000  1.0
  O2-  O86  1  0.19428195  0.58292936  0.61007497  1.0
  O2-  O87  1  0.69100000  0.58700000  0.61000000  1.0
  O2-  O88  1  0.44100000  0.08700000  0.39000000  1.0
  O2-  O89  1  0.94024944  0.08469561  0.39201827  1.0
  O2-  O90  1  0.05900000  0.41300000  0.39000000  1.0
  O2-  O91  1  0.55900000  0.41300000  0.39000000  1.0
  O2-  O92  1  0.06061650  0.91299562  0.10845750  1.0
  O2-  O93  1  0.56092716  0.91809699  0.10841786  1.0
  O2-  O94  1  0.44100000  0.58700000  0.11000000  1.0
  O2-  O95  1  0.94100000  0.58700000  0.11000000  1.0
  O2-  O96  1  0.17950000  0.37500000  0.24600000  1.0
  O2-  O97  1  0.67950000  0.37500000  0.24600000  1.0
  O2-  O98  1  0.32050000  0.12500000  0.24600000  1.0
  O2-  O99  1  0.82050000  0.12500000  0.24600000  1.0
  O2-  O100  1  0.31571015  0.62091899  0.25755399  1.0
  O2-  O101  1  0.81894469  0.62035599  0.25377375  1.0
  O2-  O102  1  0.17950000  0.87500000  0.25400000  1.0
  O2-  O103  1  0.67950000  0.87500000  0.25400000  1.0
  O2-  O104  1  0.42950000  0.37500000  0.74600000  1.0
  O2-  O105  1  0.92950000  0.37500000  0.74600000  1.0
  O2-  O106  1  0.07050000  0.12500000  0.74600000  1.0
  O2-  O107  1  0.57063111  0.12404863  0.74769247  1.0
  O2-  O108  1  0.07050000  0.62500000  0.75400000  1.0
  O2-  O109  1  0.57050000  0.62500000  0.75400000  1.0
  O2-  O110  1  0.42950000  0.87500000  0.75400000  1.0
  O2-  O111  1  0.92950000  0.87500000  0.75400000  1.0
  O2-  O112  1  0.02350000  0.93900000  0.91800000  1.0
  O2-  O113  1  0.52350000  0.93900000  0.91800000  1.0
  O2-  O114  1  0.47650000  0.56100000  0.91800000  1.0
  O2-  O115  1  0.97650000  0.56100000  0.91800000  1.0
  O2-  O116  1  0.47650000  0.06100000  0.58200000  1.0
  O2-  O117  1  0.97650000  0.06100000  0.58200000  1.0
  O2-  O118  1  0.02350000  0.43900000  0.58200000  1.0
  O2-  O119  1  0.52350000  0.43900000  0.58200000  1.0
  O2-  O120  1  0.27350000  0.93900000  0.41800000  1.0
  O2-  O121  1  0.77350000  0.93900000  0.41800000  1.0
  O2-  O122  1  0.22650000  0.56100000  0.41800000  1.0
  O2-  O123  1  0.72650000  0.56100000  0.41800000  1.0
  O2-  O124  1  0.22650000  0.06100000  0.08200000  1.0
  O2-  O125  1  0.72650000  0.06100000  0.08200000  1.0
  O2-  O126  1  0.27235697  0.44139558  0.08070803  1.0
  O2-  O127  1  0.77001144  0.43854423  0.08475506  1.0
  O2-  O128  1  0.07350000  0.20600000  0.98900000  1.0
  O2-  O129  1  0.57350000  0.20600000  0.98900000  1.0
  O2-  O130  1  0.42650000  0.29400000  0.98900000  1.0
  O2-  O131  1  0.92453708  0.29673717  0.98667324  1.0
  O2-  O132  1  0.42650000  0.79400000  0.51100000  1.0
  O2-  O133  1  0.92650000  0.79400000  0.51100000  1.0
  O2-  O134  1  0.07350000  0.70600000  0.51100000  1.0
  O2-  O135  1  0.57350000  0.70600000  0.51100000  1.0
  O2-  O136  1  0.32434222  0.20619502  0.49040537  1.0
  O2-  O137  1  0.82350000  0.20600000  0.48900000  1.0
  O2-  O138  1  0.17650000  0.29400000  0.48900000  1.0
  O2-  O139  1  0.67650000  0.29400000  0.48900000  1.0
  O2-  O140  1  0.17650000  0.79400000  0.01100000  1.0
  O2-  O141  1  0.67624226  0.79265450  0.01410322  1.0
  O2-  O142  1  0.32350000  0.70600000  0.01100000  1.0
  O2-  O143  1  0.82507422  0.70579085  0.00784454  1.0
  O2-  O144  1  0.06786369  0.38662587  0.80515564  1.0
  O2-  O145  1  0.57050000  0.38600000  0.80600000  1.0
  O2-  O146  1  0.42950000  0.11400000  0.80600000  1.0
  O2-  O147  1  0.92950000  0.11400000  0.80600000  1.0
  O2-  O148  1  0.42950000  0.61400000  0.69400000  1.0
  O2-  O149  1  0.92950000  0.61400000  0.69400000  1.0
  O2-  O150  1  0.07050000  0.88600000  0.69400000  1.0
  O2-  O151  1  0.57050000  0.88600000  0.69400000  1.0
  O2-  O152  1  0.32050000  0.38600000  0.30600000  1.0
  O2-  O153  1  0.81969485  0.38949407  0.30451504  1.0
  O2-  O154  1  0.17950000  0.11400000  0.30600000  1.0
  O2-  O155  1  0.67950000  0.11400000  0.30600000  1.0
  O2-  O156  1  0.17950000  0.61400000  0.19400000  1.0
  O2-  O157  1  0.68192601  0.61543381  0.19467206  1.0
  O2-  O158  1  0.32011759  0.88498928  0.19555823  1.0
  O2-  O159  1  0.82050000  0.88600000  0.19400000  1.0
  O2-  O160  1  0.19300000  0.34600000  0.95600000  1.0
  O2-  O161  1  0.69170697  0.34386214  0.95448635  1.0
  O2-  O162  1  0.30700000  0.15400000  0.95600000  1.0
  O2-  O163  1  0.80700000  0.15400000  0.95600000  1.0
  O2-  O164  1  0.30700000  0.65400000  0.54400000  1.0
  O2-  O165  1  0.80700000  0.65400000  0.54400000  1.0
  O2-  O166  1  0.19300000  0.84600000  0.54400000  1.0
  O2-  O167  1  0.69300000  0.84600000  0.54400000  1.0
  O2-  O168  1  0.44300000  0.34600000  0.45600000  1.0
  O2-  O169  1  0.94300000  0.34600000  0.45600000  1.0
  O2-  O170  1  0.05700000  0.15400000  0.45600000  1.0
  O2-  O171  1  0.55700000  0.15400000  0.45600000  1.0
  O2-  O172  1  0.06115508  0.65611708  0.04499024  1.0
  O2-  O173  1  0.56199493  0.65245412  0.04043180  1.0
  O2-  O174  1  0.44300000  0.84600000  0.04400000  1.0
  O2-  O175  1  0.94300000  0.84600000  0.04400000  1.0
  O2-  O176  1  0.06750000  0.21200000  0.21900000  1.0
  O2-  O177  1  0.56750000  0.21200000  0.21900000  1.0
  O2-  O178  1  0.43250000  0.28800000  0.21900000  1.0
  O2-  O179  1  0.93250000  0.28800000  0.21900000  1.0
  O2-  O180  1  0.43356262  0.78607003  0.27702174  1.0
  O2-  O181  1  0.92828026  0.78793228  0.27625072  1.0
  O2-  O182  1  0.06903839  0.70953862  0.27966940  1.0
  O2-  O183  1  0.56750000  0.71200000  0.28100000  1.0
  O2-  O184  1  0.31710826  0.21259090  0.72007348  1.0
  O2-  O185  1  0.81750000  0.21200000  0.71900000  1.0
  O2-  O186  1  0.18250000  0.28800000  0.71900000  1.0
  O2-  O187  1  0.68250000  0.28800000  0.71900000  1.0
  O2-  O188  1  0.18250000  0.78800000  0.78100000  1.0
  O2-  O189  1  0.68250000  0.78800000  0.78100000  1.0
  O2-  O190  1  0.31750000  0.71200000  0.78100000  1.0
  O2-  O191  1  0.81473835  0.70738492  0.78366397  1.0
