# generated using pymatgen
data_LiTa2PO8
_symmetry_space_group_name_H-M   'P 1'
_cell_length_a   11.44852296
_cell_length_b   19.28234972
_cell_length_c   10.62077539
_cell_angle_alpha   90.05000000
_cell_angle_beta   90.00000000
_cell_angle_gamma   90.00000000
_symmetry_Int_Tables_number   1
_chemical_formula_structural   LiTa2PO8
_chemical_formula_sum   'Li16 Ta32 P16 O128'
_cell_volume   2344.58225551
_cell_formula_units_Z   16
loop_
 _symmetry_equiv_pos_site_id
 _symmetry_equiv_pos_as_xyz
  1  'x, y, z'
loop_
 _atom_type_symbol
 _atom_type_oxidation_number
  Li+  1.0
  Ta5+  5.0
  P5+  5.0
  O2-  -2.0
loop_
 _atom_site_type_symbol
 _atom_site_label
 _atom_site_symmetry_multiplicity
 _atom_site_fract_x
 _atom_site_fract_y
 _atom_site_fract_z
 _atom_site_occupancy
  Li+  Li0  1  0.38700000  0.61066667  0.90000000  1.0
  Li+  Li1  1  0.38700000  0.11066667  0.90000000  1.0
  Li+  Li2  1  0.38700000  0.22266667  0.60000000  1.0
  Li+  Li3  1  0.38700000  0.72266667  0.60000000  1.0
  Li+  Li4  1  0.61300000  0.61066667  0.40000000  1.0
  Li+  Li5  1  0.61300000  0.11066667  0.40000000  1.0
  Li+  Li6  1  0.64300000  0.28916667  0.36000000  1.0
  Li+  Li7  1  0.64300000  0.78916667  0.36000000  1.0
  Li+  Li8  1  0.85700000  0.29416667  0.64000000  1.0
  Li+  Li9  1  0.85700000  0.79416667  0.64000000  1.0
  Li+  Li10  1  0.85700000  0.53916667  0.86000000  1.0
  Li+  Li11  1  0.85700000  0.03916667  0.86000000  1.0
  Li+  Li12  1  0.14300000  0.53916667  0.36000000  1.0
  Li+  Li13  1  0.14300000  0.03916667  0.36000000  1.0
  Li+  Li14  1  0.14300000  0.29416667  0.14000000  1.0
  Li+  Li15  1  0.14300000  0.79416667  0.14000000  1.0
  Ta5+  Ta16  1  0.09700000  0.54266667  0.75500000  1.0
  Ta5+  Ta17  1  0.09700000  0.04266667  0.75500000  1.0
  Ta5+  Ta18  1  0.09700000  0.29066667  0.74500000  1.0
  Ta5+  Ta19  1  0.09700000  0.79066667  0.74500000  1.0
  Ta5+  Ta20  1  0.90300000  0.29066667  0.24500000  1.0
  Ta5+  Ta21  1  0.90300000  0.79066667  0.24500000  1.0
  Ta5+  Ta22  1  0.90300000  0.54266667  0.25500000  1.0
  Ta5+  Ta23  1  0.90300000  0.04266667  0.25500000  1.0
  Ta5+  Ta24  1  0.59700000  0.29266667  0.75500000  1.0
  Ta5+  Ta25  1  0.59700000  0.79266667  0.75500000  1.0
  Ta5+  Ta26  1  0.59700000  0.54066667  0.74500000  1.0
  Ta5+  Ta27  1  0.59700000  0.04066667  0.74500000  1.0
  Ta5+  Ta28  1  0.40300000  0.54066667  0.24500000  1.0
  Ta5+  Ta29  1  0.40300000  0.04066667  0.24500000  1.0
  Ta5+  Ta30  1  0.40300000  0.29266667  0.25500000  1.0
  Ta5+  Ta31  1  0.40300000  0.79266667  0.25500000  1.0
  Ta5+  Ta32  1  0.34600000  0.66666667  0.75000000  1.0
  Ta5+  Ta33  1  0.34600000  0.16666667  0.75000000  1.0
  Ta5+  Ta34  1  0.65400000  0.66666667  0.25000000  1.0
  Ta5+  Ta35  1  0.65400000  0.16666667  0.25000000  1.0
  Ta5+  Ta36  1  0.84600000  0.41666667  0.75000000  1.0
  Ta5+  Ta37  1  0.84600000  0.91666667  0.75000000  1.0
  Ta5+  Ta38  1  0.15400000  0.41666667  0.25000000  1.0
  Ta5+  Ta39  1  0.15400000  0.91666667  0.25000000  1.0
  Ta5+  Ta40  1  0.00000000  0.66666667  0.50000000  1.0
  Ta5+  Ta41  1  0.00000000  0.16666667  0.50000000  1.0
  Ta5+  Ta42  1  0.00000000  0.66666667  0.00000000  1.0
  Ta5+  Ta43  1  0.00000000  0.16666667  0.00000000  1.0
  Ta5+  Ta44  1  0.50000000  0.41666667  0.50000000  1.0
  Ta5+  Ta45  1  0.50000000  0.91666667  0.50000000  1.0
  Ta5+  Ta46  1  0.50000000  0.41666667  0.00000000  1.0
  Ta5+  Ta47  1  0.50000000  0.91666667  0.00000000  1.0
  P5+  P48  1  0.20800000  0.42216667  0.56000000  1.0
  P5+  P49  1  0.20800000  0.92216667  0.56000000  1.0
  P5+  P50  1  0.20800000  0.41116667  0.94000000  1.0
  P5+  P51  1  0.20800000  0.91116667  0.94000000  1.0
  P5+  P52  1  0.79200000  0.41116667  0.44000000  1.0
  P5+  P53  1  0.79200000  0.91116667  0.44000000  1.0
  P5+  P54  1  0.79200000  0.42216667  0.06000000  1.0
  P5+  P55  1  0.79200000  0.92216667  0.06000000  1.0
  P5+  P56  1  0.70800000  0.17216667  0.56000000  1.0
  P5+  P57  1  0.70800000  0.67216667  0.56000000  1.0
  P5+  P58  1  0.70800000  0.66116667  0.94000000  1.0
  P5+  P59  1  0.70800000  0.16116667  0.94000000  1.0
  P5+  P60  1  0.29200000  0.66116667  0.44000000  1.0
  P5+  P61  1  0.29200000  0.16116667  0.44000000  1.0
  P5+  P62  1  0.29200000  0.17216667  0.06000000  1.0
  P5+  P63  1  0.29200000  0.67216667  0.06000000  1.0
  O2-  O64  1  0.33500000  0.63766667  0.56600000  1.0
  O2-  O65  1  0.33500000  0.13766667  0.56600000  1.0
  O2-  O66  1  0.33500000  0.19566667  0.93400000  1.0
  O2-  O67  1  0.33500000  0.69566667  0.93400000  1.0
  O2-  O68  1  0.66500000  0.19566667  0.43400000  1.0
  O2-  O69  1  0.66500000  0.69566667  0.43400000  1.0
  O2-  O70  1  0.66500000  0.63766667  0.06600000  1.0
  O2-  O71  1  0.66500000  0.13766667  0.06600000  1.0
  O2-  O72  1  0.83500000  0.38766667  0.56600000  1.0
  O2-  O73  1  0.83500000  0.88766667  0.56600000  1.0
  O2-  O74  1  0.83500000  0.44566667  0.93400000  1.0
  O2-  O75  1  0.83500000  0.94566667  0.93400000  1.0
  O2-  O76  1  0.16500000  0.44566667  0.43400000  1.0
  O2-  O77  1  0.16500000  0.94566667  0.43400000  1.0
  O2-  O78  1  0.16500000  0.38766667  0.06600000  1.0
  O2-  O79  1  0.16500000  0.88766667  0.06600000  1.0
  O2-  O80  1  0.14000000  0.47566667  0.91300000  1.0
  O2-  O81  1  0.14000000  0.97566667  0.91300000  1.0
  O2-  O82  1  0.14000000  0.35766667  0.58700000  1.0
  O2-  O83  1  0.14000000  0.85766667  0.58700000  1.0
  O2-  O84  1  0.86000000  0.35766667  0.08700000  1.0
  O2-  O85  1  0.86000000  0.85766667  0.08700000  1.0
  O2-  O86  1  0.86000000  0.47566667  0.41300000  1.0
  O2-  O87  1  0.86000000  0.97566667  0.41300000  1.0
  O2-  O88  1  0.64000000  0.22566667  0.91300000  1.0
  O2-  O89  1  0.64000000  0.72566667  0.91300000  1.0
  O2-  O90  1  0.64000000  0.60766667  0.58700000  1.0
  O2-  O91  1  0.64000000  0.10766667  0.58700000  1.0
  O2-  O92  1  0.36000000  0.60766667  0.08700000  1.0
  O2-  O93  1  0.36000000  0.10766667  0.08700000  1.0
  O2-  O94  1  0.36000000  0.22566667  0.41300000  1.0
  O2-  O95  1  0.36000000  0.72566667  0.41300000  1.0
  O2-  O96  1  0.49600000  0.48716667  0.62500000  1.0
  O2-  O97  1  0.49600000  0.98716667  0.62500000  1.0
  O2-  O98  1  0.49600000  0.34616667  0.87500000  1.0
  O2-  O99  1  0.49600000  0.84616667  0.87500000  1.0
  O2-  O100  1  0.50400000  0.34616667  0.37500000  1.0
  O2-  O101  1  0.50400000  0.84616667  0.37500000  1.0
  O2-  O102  1  0.50400000  0.48716667  0.12500000  1.0
  O2-  O103  1  0.50400000  0.98716667  0.12500000  1.0
  O2-  O104  1  0.99600000  0.23716667  0.62500000  1.0
  O2-  O105  1  0.99600000  0.73716667  0.62500000  1.0
  O2-  O106  1  0.99600000  0.59616667  0.87500000  1.0
  O2-  O107  1  0.99600000  0.09616667  0.87500000  1.0
  O2-  O108  1  0.00400000  0.59616667  0.37500000  1.0
  O2-  O109  1  0.00400000  0.09616667  0.37500000  1.0
  O2-  O110  1  0.00400000  0.23716667  0.12500000  1.0
  O2-  O111  1  0.00400000  0.73716667  0.12500000  1.0
  O2-  O112  1  0.16800000  0.64316667  0.06100000  1.0
  O2-  O113  1  0.16800000  0.14316667  0.06100000  1.0
  O2-  O114  1  0.16800000  0.19016667  0.43900000  1.0
  O2-  O115  1  0.16800000  0.69016667  0.43900000  1.0
  O2-  O116  1  0.83200000  0.19016667  0.93900000  1.0
  O2-  O117  1  0.83200000  0.69016667  0.93900000  1.0
  O2-  O118  1  0.83200000  0.64316667  0.56100000  1.0
  O2-  O119  1  0.83200000  0.14316667  0.56100000  1.0
  O2-  O120  1  0.66800000  0.39316667  0.06100000  1.0
  O2-  O121  1  0.66800000  0.89316667  0.06100000  1.0
  O2-  O122  1  0.66800000  0.44016667  0.43900000  1.0
  O2-  O123  1  0.66800000  0.94016667  0.43900000  1.0
  O2-  O124  1  0.33200000  0.44016667  0.93900000  1.0
  O2-  O125  1  0.33200000  0.94016667  0.93900000  1.0
  O2-  O126  1  0.33200000  0.39316667  0.56100000  1.0
  O2-  O127  1  0.33200000  0.89316667  0.56100000  1.0
  O2-  O128  1  0.23900000  0.59316667  0.79400000  1.0
  O2-  O129  1  0.23900000  0.09316667  0.79400000  1.0
  O2-  O130  1  0.23900000  0.24016667  0.70600000  1.0
  O2-  O131  1  0.23900000  0.74016667  0.70600000  1.0
  O2-  O132  1  0.76100000  0.24016667  0.20600000  1.0
  O2-  O133  1  0.76100000  0.74016667  0.20600000  1.0
  O2-  O134  1  0.76100000  0.59316667  0.29400000  1.0
  O2-  O135  1  0.76100000  0.09316667  0.29400000  1.0
  O2-  O136  1  0.73900000  0.34316667  0.79400000  1.0
  O2-  O137  1  0.73900000  0.84316667  0.79400000  1.0
  O2-  O138  1  0.73900000  0.49016667  0.70600000  1.0
  O2-  O139  1  0.73900000  0.99016667  0.70600000  1.0
  O2-  O140  1  0.26100000  0.49016667  0.20600000  1.0
  O2-  O141  1  0.26100000  0.99016667  0.20600000  1.0
  O2-  O142  1  0.26100000  0.34316667  0.29400000  1.0
  O2-  O143  1  0.26100000  0.84316667  0.29400000  1.0
  O2-  O144  1  0.05600000  0.59616667  0.61400000  1.0
  O2-  O145  1  0.05600000  0.09616667  0.61400000  1.0
  O2-  O146  1  0.05600000  0.23716667  0.88600000  1.0
  O2-  O147  1  0.05600000  0.73716667  0.88600000  1.0
  O2-  O148  1  0.94400000  0.23716667  0.38600000  1.0
  O2-  O149  1  0.94400000  0.73716667  0.38600000  1.0
  O2-  O150  1  0.94400000  0.59616667  0.11400000  1.0
  O2-  O151  1  0.94400000  0.09616667  0.11400000  1.0
  O2-  O152  1  0.55600000  0.34616667  0.61400000  1.0
  O2-  O153  1  0.55600000  0.84616667  0.61400000  1.0
  O2-  O154  1  0.55600000  0.48716667  0.88600000  1.0
  O2-  O155  1  0.55600000  0.98716667  0.88600000  1.0
  O2-  O156  1  0.44400000  0.48716667  0.38600000  1.0
  O2-  O157  1  0.44400000  0.98716667  0.38600000  1.0
  O2-  O158  1  0.44400000  0.34616667  0.11400000  1.0
  O2-  O159  1  0.44400000  0.84616667  0.11400000  1.0
  O2-  O160  1  0.20600000  0.47366667  0.65400000  1.0
  O2-  O161  1  0.20600000  0.97366667  0.65400000  1.0
  O2-  O162  1  0.20600000  0.35966667  0.84600000  1.0
  O2-  O163  1  0.20600000  0.85966667  0.84600000  1.0
  O2-  O164  1  0.79400000  0.35966667  0.34600000  1.0
  O2-  O165  1  0.79400000  0.85966667  0.34600000  1.0
  O2-  O166  1  0.79400000  0.47366667  0.15400000  1.0
  O2-  O167  1  0.79400000  0.97366667  0.15400000  1.0
  O2-  O168  1  0.70600000  0.22366667  0.65400000  1.0
  O2-  O169  1  0.70600000  0.72366667  0.65400000  1.0
  O2-  O170  1  0.70600000  0.60966667  0.84600000  1.0
  O2-  O171  1  0.70600000  0.10966667  0.84600000  1.0
  O2-  O172  1  0.29400000  0.60966667  0.34600000  1.0
  O2-  O173  1  0.29400000  0.10966667  0.34600000  1.0
  O2-  O174  1  0.29400000  0.22366667  0.15400000  1.0
  O2-  O175  1  0.29400000  0.72366667  0.15400000  1.0
  O2-  O176  1  0.46900000  0.59916667  0.78800000  1.0
  O2-  O177  1  0.46900000  0.09916667  0.78800000  1.0
  O2-  O178  1  0.46900000  0.23416667  0.71200000  1.0
  O2-  O179  1  0.46900000  0.73416667  0.71200000  1.0
  O2-  O180  1  0.53100000  0.23416667  0.21200000  1.0
  O2-  O181  1  0.53100000  0.73416667  0.21200000  1.0
  O2-  O182  1  0.53100000  0.59916667  0.28800000  1.0
  O2-  O183  1  0.53100000  0.09916667  0.28800000  1.0
  O2-  O184  1  0.96900000  0.34916667  0.78800000  1.0
  O2-  O185  1  0.96900000  0.84916667  0.78800000  1.0
  O2-  O186  1  0.96900000  0.48416667  0.71200000  1.0
  O2-  O187  1  0.96900000  0.98416667  0.71200000  1.0
  O2-  O188  1  0.03100000  0.48416667  0.21200000  1.0
  O2-  O189  1  0.03100000  0.98416667  0.21200000  1.0
  O2-  O190  1  0.03100000  0.34916667  0.28800000  1.0
  O2-  O191  1  0.03100000  0.84916667  0.28800000  1.0
