# generated using pymatgen
data_LiTa2PO8
_symmetry_space_group_name_H-M   'P 1'
_cell_length_a   19.42800000
_cell_length_b   11.53500000
_cell_length_c   10.70100000
_cell_angle_alpha   90.00000000
_cell_angle_beta   89.95000000
_cell_angle_gamma   90.00000000
_symmetry_Int_Tables_number   1
_chemical_formula_structural   LiTa2PO8
_chemical_formula_sum   'Li16 Ta32 P16 O128'
_cell_volume   2398.11437485
_cell_formula_units_Z   16
loop_
 _symmetry_equiv_pos_site_id
 _symmetry_equiv_pos_as_xyz
  1  'x, y, z'
loop_
 _atom_type_symbol
 _atom_type_oxidation_number
  Li+  1.0
  Ta5+  5.0
  P5+  5.0
  O2-  -2.0
loop_
 _atom_site_type_symbol
 _atom_site_label
 _atom_site_symmetry_multiplicity
 _atom_site_fract_x
 _atom_site_fract_y
 _atom_site_fract_z
 _atom_site_occupancy
  Li+  Li0  1  0.05600000  0.61300000  0.90000000  1.0
  Li+  Li0  1  0.55600000  0.61300000  0.90000000  1.0
  Li+  Li1  1  0.44400000  0.61300000  0.60000000  1.0
  Li+  Li1  1  0.94400000  0.61300000  0.60000000  1.0
  Li+  Li2  1  0.05600000  0.38700000  0.40000000  1.0
  Li+  Li2  1  0.55600000  0.38700000  0.40000000  1.0
  Li+  Li3  1  0.37750000  0.35700000  0.36000000  1.0
  Li+  Li3  1  0.87750000  0.35700000  0.36000000  1.0
  Li+  Li4  1  0.37250000  0.14300000  0.64000000  1.0
  Li+  Li4  1  0.87250000  0.14300000  0.64000000  1.0
  Li+  Li5  1  0.12750000  0.14300000  0.86000000  1.0
  Li+  Li5  1  0.62750000  0.14300000  0.86000000  1.0
  Li+  Li6  1  0.12750000  0.85700000  0.36000000  1.0
  Li+  Li6  1  0.62750000  0.85700000  0.36000000  1.0
  Li+  Li7  1  0.37250000  0.85700000  0.14000000  1.0
  Li+  Li7  1  0.87250000  0.85700000  0.14000000  1.0
  Ta5+  Ta1  1  0.12400000  0.90300000  0.75500000  1.0
  Ta5+  Ta1  1  0.62400000  0.90300000  0.75500000  1.0
  Ta5+  Ta1  1  0.37600000  0.90300000  0.74500000  1.0
  Ta5+  Ta1  1  0.87600000  0.90300000  0.74500000  1.0
  Ta5+  Ta1  1  0.37600000  0.09700000  0.24500000  1.0
  Ta5+  Ta1  1  0.87600000  0.09700000  0.24500000  1.0
  Ta5+  Ta1  1  0.12400000  0.09700000  0.25500000  1.0
  Ta5+  Ta1  1  0.62400000  0.09700000  0.25500000  1.0
  Ta5+  Ta1  1  0.37400000  0.40300000  0.75500000  1.0
  Ta5+  Ta1  1  0.87400000  0.40300000  0.75500000  1.0
  Ta5+  Ta1  1  0.12600000  0.40300000  0.74500000  1.0
  Ta5+  Ta1  1  0.62600000  0.40300000  0.74500000  1.0
  Ta5+  Ta1  1  0.12600000  0.59700000  0.24500000  1.0
  Ta5+  Ta1  1  0.62600000  0.59700000  0.24500000  1.0
  Ta5+  Ta1  1  0.37400000  0.59700000  0.25500000  1.0
  Ta5+  Ta1  1  0.87400000  0.59700000  0.25500000  1.0
  Ta5+  Ta2  1  0.00000000  0.65400000  0.75000000  1.0
  Ta5+  Ta2  1  0.50000000  0.65400000  0.75000000  1.0
  Ta5+  Ta2  1  0.00000000  0.34600000  0.25000000  1.0
  Ta5+  Ta2  1  0.50000000  0.34600000  0.25000000  1.0
  Ta5+  Ta2  1  0.25000000  0.15400000  0.75000000  1.0
  Ta5+  Ta2  1  0.75000000  0.15400000  0.75000000  1.0
  Ta5+  Ta2  1  0.25000000  0.84600000  0.25000000  1.0
  Ta5+  Ta2  1  0.75000000  0.84600000  0.25000000  1.0
  Ta5+  Ta3  1  0.00000000  0.00000000  0.50000000  1.0
  Ta5+  Ta3  1  0.50000000  0.00000000  0.50000000  1.0
  Ta5+  Ta3  1  0.00000000  0.00000000  0.00000000  1.0
  Ta5+  Ta3  1  0.50000000  0.00000000  0.00000000  1.0
  Ta5+  Ta3  1  0.25000000  0.50000000  0.50000000  1.0
  Ta5+  Ta3  1  0.75000000  0.50000000  0.50000000  1.0
  Ta5+  Ta3  1  0.25000000  0.50000000  0.00000000  1.0
  Ta5+  Ta3  1  0.75000000  0.50000000  0.00000000  1.0
  P5+  P1  1  0.24450000  0.79200000  0.56000000  1.0
  P5+  P1  1  0.74450000  0.79200000  0.56000000  1.0
  P5+  P1  1  0.25550000  0.79200000  0.94000000  1.0
  P5+  P1  1  0.75550000  0.79200000  0.94000000  1.0
  P5+  P1  1  0.25550000  0.20800000  0.44000000  1.0
  P5+  P1  1  0.75550000  0.20800000  0.44000000  1.0
  P5+  P1  1  0.24450000  0.20800000  0.06000000  1.0
  P5+  P1  1  0.74450000  0.20800000  0.06000000  1.0
  P5+  P1  1  0.49450000  0.29200000  0.56000000  1.0
  P5+  P1  1  0.99450000  0.29200000  0.56000000  1.0
  P5+  P1  1  0.00550000  0.29200000  0.94000000  1.0
  P5+  P1  1  0.50550000  0.29200000  0.94000000  1.0
  P5+  P1  1  0.00550000  0.70800000  0.44000000  1.0
  P5+  P1  1  0.50550000  0.70800000  0.44000000  1.0
  P5+  P1  1  0.49450000  0.70800000  0.06000000  1.0
  P5+  P1  1  0.99450000  0.70800000  0.06000000  1.0
  O2-  O1  1  0.02900000  0.66500000  0.56600000  1.0
  O2-  O1  1  0.52900000  0.66500000  0.56600000  1.0
  O2-  O1  1  0.47100000  0.66500000  0.93400000  1.0
  O2-  O1  1  0.97100000  0.66500000  0.93400000  1.0
  O2-  O1  1  0.47100000  0.33500000  0.43400000  1.0
  O2-  O1  1  0.97100000  0.33500000  0.43400000  1.0
  O2-  O1  1  0.02900000  0.33500000  0.06600000  1.0
  O2-  O1  1  0.52900000  0.33500000  0.06600000  1.0
  O2-  O1  1  0.27900000  0.16500000  0.56600000  1.0
  O2-  O1  1  0.77900000  0.16500000  0.56600000  1.0
  O2-  O1  1  0.22100000  0.16500000  0.93400000  1.0
  O2-  O1  1  0.72100000  0.16500000  0.93400000  1.0
  O2-  O1  1  0.22100000  0.83500000  0.43400000  1.0
  O2-  O1  1  0.72100000  0.83500000  0.43400000  1.0
  O2-  O1  1  0.27900000  0.83500000  0.06600000  1.0
  O2-  O1  1  0.77900000  0.83500000  0.06600000  1.0
  O2-  O2  1  0.19100000  0.86000000  0.91300000  1.0
  O2-  O2  1  0.69100000  0.86000000  0.91300000  1.0
  O2-  O2  1  0.30900000  0.86000000  0.58700000  1.0
  O2-  O2  1  0.80900000  0.86000000  0.58700000  1.0
  O2-  O2  1  0.30900000  0.14000000  0.08700000  1.0
  O2-  O2  1  0.80900000  0.14000000  0.08700000  1.0
  O2-  O2  1  0.19100000  0.14000000  0.41300000  1.0
  O2-  O2  1  0.69100000  0.14000000  0.41300000  1.0
  O2-  O2  1  0.44100000  0.36000000  0.91300000  1.0
  O2-  O2  1  0.94100000  0.36000000  0.91300000  1.0
  O2-  O2  1  0.05900000  0.36000000  0.58700000  1.0
  O2-  O2  1  0.55900000  0.36000000  0.58700000  1.0
  O2-  O2  1  0.05900000  0.64000000  0.08700000  1.0
  O2-  O2  1  0.55900000  0.64000000  0.08700000  1.0
  O2-  O2  1  0.44100000  0.64000000  0.41300000  1.0
  O2-  O2  1  0.94100000  0.64000000  0.41300000  1.0
  O2-  O3  1  0.17950000  0.50400000  0.62500000  1.0
  O2-  O3  1  0.67950000  0.50400000  0.62500000  1.0
  O2-  O3  1  0.32050000  0.50400000  0.87500000  1.0
  O2-  O3  1  0.82050000  0.50400000  0.87500000  1.0
  O2-  O3  1  0.32050000  0.49600000  0.37500000  1.0
  O2-  O3  1  0.82050000  0.49600000  0.37500000  1.0
  O2-  O3  1  0.17950000  0.49600000  0.12500000  1.0
  O2-  O3  1  0.67950000  0.49600000  0.12500000  1.0
  O2-  O3  1  0.42950000  0.00400000  0.62500000  1.0
  O2-  O3  1  0.92950000  0.00400000  0.62500000  1.0
  O2-  O3  1  0.07050000  0.00400000  0.87500000  1.0
  O2-  O3  1  0.57050000  0.00400000  0.87500000  1.0
  O2-  O3  1  0.07050000  0.99600000  0.37500000  1.0
  O2-  O3  1  0.57050000  0.99600000  0.37500000  1.0
  O2-  O3  1  0.42950000  0.99600000  0.12500000  1.0
  O2-  O3  1  0.92950000  0.99600000  0.12500000  1.0
  O2-  O4  1  0.02350000  0.83200000  0.06100000  1.0
  O2-  O4  1  0.52350000  0.83200000  0.06100000  1.0
  O2-  O4  1  0.47650000  0.83200000  0.43900000  1.0
  O2-  O4  1  0.97650000  0.83200000  0.43900000  1.0
  O2-  O4  1  0.47650000  0.16800000  0.93900000  1.0
  O2-  O4  1  0.97650000  0.16800000  0.93900000  1.0
  O2-  O4  1  0.02350000  0.16800000  0.56100000  1.0
  O2-  O4  1  0.52350000  0.16800000  0.56100000  1.0
  O2-  O4  1  0.27350000  0.33200000  0.06100000  1.0
  O2-  O4  1  0.77350000  0.33200000  0.06100000  1.0
  O2-  O4  1  0.22650000  0.33200000  0.43900000  1.0
  O2-  O4  1  0.72650000  0.33200000  0.43900000  1.0
  O2-  O4  1  0.22650000  0.66800000  0.93900000  1.0
  O2-  O4  1  0.72650000  0.66800000  0.93900000  1.0
  O2-  O4  1  0.27350000  0.66800000  0.56100000  1.0
  O2-  O4  1  0.77350000  0.66800000  0.56100000  1.0
  O2-  O5  1  0.07350000  0.76100000  0.79400000  1.0
  O2-  O5  1  0.57350000  0.76100000  0.79400000  1.0
  O2-  O5  1  0.42650000  0.76100000  0.70600000  1.0
  O2-  O5  1  0.92650000  0.76100000  0.70600000  1.0
  O2-  O5  1  0.42650000  0.23900000  0.20600000  1.0
  O2-  O5  1  0.92650000  0.23900000  0.20600000  1.0
  O2-  O5  1  0.07350000  0.23900000  0.29400000  1.0
  O2-  O5  1  0.57350000  0.23900000  0.29400000  1.0
  O2-  O5  1  0.32350000  0.26100000  0.79400000  1.0
  O2-  O5  1  0.82350000  0.26100000  0.79400000  1.0
  O2-  O5  1  0.17650000  0.26100000  0.70600000  1.0
  O2-  O5  1  0.67650000  0.26100000  0.70600000  1.0
  O2-  O5  1  0.17650000  0.73900000  0.20600000  1.0
  O2-  O5  1  0.67650000  0.73900000  0.20600000  1.0
  O2-  O5  1  0.32350000  0.73900000  0.29400000  1.0
  O2-  O5  1  0.82350000  0.73900000  0.29400000  1.0
  O2-  O6  1  0.07050000  0.94400000  0.61400000  1.0
  O2-  O6  1  0.57050000  0.94400000  0.61400000  1.0
  O2-  O6  1  0.42950000  0.94400000  0.88600000  1.0
  O2-  O6  1  0.92950000  0.94400000  0.88600000  1.0
  O2-  O6  1  0.42950000  0.05600000  0.38600000  1.0
  O2-  O6  1  0.92950000  0.05600000  0.38600000  1.0
  O2-  O6  1  0.07050000  0.05600000  0.11400000  1.0
  O2-  O6  1  0.57050000  0.05600000  0.11400000  1.0
  O2-  O6  1  0.32050000  0.44400000  0.61400000  1.0
  O2-  O6  1  0.82050000  0.44400000  0.61400000  1.0
  O2-  O6  1  0.17950000  0.44400000  0.88600000  1.0
  O2-  O6  1  0.67950000  0.44400000  0.88600000  1.0
  O2-  O6  1  0.17950000  0.55600000  0.38600000  1.0
  O2-  O6  1  0.67950000  0.55600000  0.38600000  1.0
  O2-  O6  1  0.32050000  0.55600000  0.11400000  1.0
  O2-  O6  1  0.82050000  0.55600000  0.11400000  1.0
  O2-  O7  1  0.19300000  0.79400000  0.65400000  1.0
  O2-  O7  1  0.69300000  0.79400000  0.65400000  1.0
  O2-  O7  1  0.30700000  0.79400000  0.84600000  1.0
  O2-  O7  1  0.80700000  0.79400000  0.84600000  1.0
  O2-  O7  1  0.30700000  0.20600000  0.34600000  1.0
  O2-  O7  1  0.80700000  0.20600000  0.34600000  1.0
  O2-  O7  1  0.19300000  0.20600000  0.15400000  1.0
  O2-  O7  1  0.69300000  0.20600000  0.15400000  1.0
  O2-  O7  1  0.44300000  0.29400000  0.65400000  1.0
  O2-  O7  1  0.94300000  0.29400000  0.65400000  1.0
  O2-  O7  1  0.05700000  0.29400000  0.84600000  1.0
  O2-  O7  1  0.55700000  0.29400000  0.84600000  1.0
  O2-  O7  1  0.05700000  0.70600000  0.34600000  1.0
  O2-  O7  1  0.55700000  0.70600000  0.34600000  1.0
  O2-  O7  1  0.44300000  0.70600000  0.15400000  1.0
  O2-  O7  1  0.94300000  0.70600000  0.15400000  1.0
  O2-  O8  1  0.06750000  0.53100000  0.78800000  1.0
  O2-  O8  1  0.56750000  0.53100000  0.78800000  1.0
  O2-  O8  1  0.43250000  0.53100000  0.71200000  1.0
  O2-  O8  1  0.93250000  0.53100000  0.71200000  1.0
  O2-  O8  1  0.43250000  0.46900000  0.21200000  1.0
  O2-  O8  1  0.93250000  0.46900000  0.21200000  1.0
  O2-  O8  1  0.06750000  0.46900000  0.28800000  1.0
  O2-  O8  1  0.56750000  0.46900000  0.28800000  1.0
  O2-  O8  1  0.31750000  0.03100000  0.78800000  1.0
  O2-  O8  1  0.81750000  0.03100000  0.78800000  1.0
  O2-  O8  1  0.18250000  0.03100000  0.71200000  1.0
  O2-  O8  1  0.68250000  0.03100000  0.71200000  1.0
  O2-  O8  1  0.18250000  0.96900000  0.21200000  1.0
  O2-  O8  1  0.68250000  0.96900000  0.21200000  1.0
  O2-  O8  1  0.31750000  0.96900000  0.28800000  1.0
  O2-  O8  1  0.81750000  0.96900000  0.28800000  1.0
