# generated using pymatgen
data_Li11P2(S3Cl)3
_symmetry_space_group_name_H-M   'P 1'
_cell_length_a   13.88648258
_cell_length_b   13.88648258
_cell_length_c   13.88648258
_cell_angle_alpha   60.00000000
_cell_angle_beta   60.00000000
_cell_angle_gamma   60.00000000
_symmetry_Int_Tables_number   1
_chemical_formula_structural   Li11P2(S3Cl)3
_chemical_formula_sum   'Li44 P8 S36 Cl12'
_cell_volume   1893.48453874
_cell_formula_units_Z   4
loop_
 _symmetry_equiv_pos_site_id
 _symmetry_equiv_pos_as_xyz
  1  'x, y, z'
loop_
 _atom_type_symbol
 _atom_type_oxidation_number
  Li+  1.0
  P5+  5.0
  S2-  -2.0
  Cl-  -1.0
loop_
 _atom_site_type_symbol
 _atom_site_label
 _atom_site_symmetry_multiplicity
 _atom_site_fract_x
 _atom_site_fract_y
 _atom_site_fract_z
 _atom_site_occupancy
  Li+  Li0  1  0.11932500  0.61932500  0.33273500  1.0
  Li+  Li1  1  0.61932500  0.61932500  0.33273500  1.0
  Li+  Li2  1  0.92861500  0.33273500  0.61932500  1.0
  Li+  Li3  1  0.33273500  0.42861500  0.61932500  1.0
  Li+  Li4  1  0.42861500  0.61932500  0.33273500  1.0
  Li+  Li5  1  0.92861500  0.11932500  0.83273500  1.0
  Li+  Li6  1  0.83273500  0.61932500  0.42861500  1.0
  Li+  Li7  1  0.11932500  0.33273500  0.42861500  1.0
  Li+  Li8  1  0.11932500  0.83273500  0.92861500  1.0
  Li+  Li9  1  0.61932500  0.33273500  0.92861500  1.0
  Li+  Li10  1  0.11932500  0.83273500  0.11932500  1.0
  Li+  Li11  1  0.61932500  0.11932500  0.92861500  1.0
  Li+  Li12  1  0.15685000  0.01525000  0.31265000  1.0
  Li+  Li13  1  0.15685000  0.01525000  0.81265000  1.0
  Li+  Li14  1  0.15685000  0.51525000  0.81265000  1.0
  Li+  Li15  1  0.65685000  0.51525000  0.31265000  1.0
  Li+  Li16  1  0.01525000  0.31265000  0.65685000  1.0
  Li+  Li17  1  0.01525000  0.81265000  0.65685000  1.0
  Li+  Li18  1  0.51525000  0.31265000  0.65685000  1.0
  Li+  Li19  1  0.51525000  0.81265000  0.15685000  1.0
  Li+  Li20  1  0.51525000  0.81265000  0.65685000  1.0
  Li+  Li21  1  0.31265000  0.01525000  0.01525000  1.0
  Li+  Li22  1  0.31265000  0.01525000  0.51525000  1.0
  Li+  Li23  1  0.31265000  0.51525000  0.01525000  1.0
  Li+  Li24  1  0.31265000  0.01525000  0.15685000  1.0
  Li+  Li25  1  0.81265000  0.01525000  0.15685000  1.0
  Li+  Li26  1  0.81265000  0.01525000  0.65685000  1.0
  Li+  Li27  1  0.81265000  0.51525000  0.15685000  1.0
  Li+  Li28  1  0.51525000  0.01525000  0.31265000  1.0
  Li+  Li29  1  0.51525000  0.51525000  0.15685000  1.0
  Li+  Li30  1  0.51525000  0.51525000  0.65685000  1.0
  Li+  Li31  1  0.01525000  0.15685000  0.31265000  1.0
  Li+  Li32  1  0.01525000  0.65685000  0.81265000  1.0
  Li+  Li33  1  0.51525000  0.15685000  0.81265000  1.0
  Li+  Li34  1  0.51525000  0.15685000  0.51525000  1.0
  Li+  Li35  1  0.15685000  0.01525000  0.01525000  1.0
  Li+  Li36  1  0.15685000  0.01525000  0.51525000  1.0
  Li+  Li37  1  0.15685000  0.51525000  0.51525000  1.0
  Li+  Li38  1  0.51525000  0.31265000  0.51525000  1.0
  Li+  Li39  1  0.31265000  0.15685000  0.51525000  1.0
  Li+  Li40  1  0.31265000  0.65685000  0.01525000  1.0
  Li+  Li41  1  0.81265000  0.65685000  0.01525000  1.0
  Li+  Li42  1  0.65685000  0.31265000  0.01525000  1.0
  Li+  Li43  1  0.65685000  0.31265000  0.51525000  1.0
  P5+  P1  1  0.25000000  0.25000000  0.25000000  1.0
  P5+  P1  1  0.25000000  0.25000000  0.75000000  1.0
  P5+  P1  1  0.25000000  0.75000000  0.25000000  1.0
  P5+  P1  1  0.25000000  0.75000000  0.75000000  1.0
  P5+  P1  1  0.75000000  0.25000000  0.25000000  1.0
  P5+  P1  1  0.75000000  0.25000000  0.75000000  1.0
  P5+  P1  1  0.75000000  0.75000000  0.25000000  1.0
  P5+  P1  1  0.75000000  0.75000000  0.75000000  1.0
  S2-  S2  1  0.31101000  0.06697000  0.31101000  1.0
  S2-  S2  1  0.31101000  0.06697000  0.81101000  1.0
  S2-  S2  1  0.31101000  0.56697000  0.31101000  1.0
  S2-  S2  1  0.31101000  0.56697000  0.81101000  1.0
  S2-  S2  1  0.81101000  0.06697000  0.31101000  1.0
  S2-  S2  1  0.81101000  0.06697000  0.81101000  1.0
  S2-  S2  1  0.81101000  0.56697000  0.31101000  1.0
  S2-  S2  1  0.81101000  0.56697000  0.81101000  1.0
  S2-  S2  1  0.31101000  0.31101000  0.31101000  1.0
  S2-  S2  1  0.31101000  0.31101000  0.81101000  1.0
  S2-  S2  1  0.31101000  0.81101000  0.31101000  1.0
  S2-  S2  1  0.31101000  0.81101000  0.81101000  1.0
  S2-  S2  1  0.81101000  0.31101000  0.31101000  1.0
  S2-  S2  1  0.81101000  0.31101000  0.81101000  1.0
  S2-  S2  1  0.81101000  0.81101000  0.31101000  1.0
  S2-  S2  1  0.81101000  0.81101000  0.81101000  1.0
  S2-  S2  1  0.31101000  0.31101000  0.06697000  1.0
  S2-  S2  1  0.31101000  0.31101000  0.56697000  1.0
  S2-  S2  1  0.31101000  0.81101000  0.06697000  1.0
  S2-  S2  1  0.31101000  0.81101000  0.56697000  1.0
  S2-  S2  1  0.81101000  0.31101000  0.06697000  1.0
  S2-  S2  1  0.81101000  0.31101000  0.56697000  1.0
  S2-  S2  1  0.81101000  0.81101000  0.06697000  1.0
  S2-  S2  1  0.81101000  0.81101000  0.56697000  1.0
  S2-  S2  1  0.06697000  0.31101000  0.31101000  1.0
  S2-  S2  1  0.06697000  0.31101000  0.81101000  1.0
  S2-  S2  1  0.06697000  0.81101000  0.31101000  1.0
  S2-  S2  1  0.06697000  0.81101000  0.81101000  1.0
  S2-  S2  1  0.56697000  0.31101000  0.31101000  1.0
  S2-  S2  1  0.56697000  0.31101000  0.81101000  1.0
  S2-  S2  1  0.56697000  0.81101000  0.31101000  1.0
  S2-  S2  1  0.56697000  0.81101000  0.81101000  1.0
  S2-  S84  1  0.00000000  0.00000000  0.00000000  1.0
  S2-  S85  1  0.00000000  0.50000000  0.50000000  1.0
  S2-  S86  1  0.50000000  0.00000000  0.00000000  1.0
  S2-  S87  1  0.50000000  0.50000000  0.50000000  1.0
  Cl-  Cl88  1  0.12500000  0.12500000  0.12500000  1.0
  Cl-  Cl89  1  0.12500000  0.12500000  0.62500000  1.0
  Cl-  Cl90  1  0.12500000  0.62500000  0.12500000  1.0
  Cl-  Cl91  1  0.12500000  0.62500000  0.62500000  1.0
  Cl-  Cl92  1  0.62500000  0.12500000  0.12500000  1.0
  Cl-  Cl93  1  0.62500000  0.12500000  0.62500000  1.0
  Cl-  Cl94  1  0.62500000  0.62500000  0.12500000  1.0
  Cl-  Cl95  1  0.62500000  0.62500000  0.62500000  1.0
  Cl-  Cl96  1  0.00000000  0.00000000  0.50000000  1.0
  Cl-  Cl97  1  0.00000000  0.50000000  0.00000000  1.0
  Cl-  Cl98  1  0.50000000  0.00000000  0.50000000  1.0
  Cl-  Cl99  1  0.50000000  0.50000000  0.00000000  1.0
