# generated using pymatgen
data_LiIO3
_symmetry_space_group_name_H-M   'P 1'
_cell_length_a   20.68000000
_cell_length_b   10.95400000
_cell_length_c   10.95400000
_cell_angle_alpha   120.00000000
_cell_angle_beta   90.00000000
_cell_angle_gamma   90.00000000
_symmetry_Int_Tables_number   1
_chemical_formula_structural   LiIO3
_chemical_formula_sum   'Li32 I32 O96'
_cell_volume   2148.95162547
_cell_formula_units_Z   32
loop_
 _symmetry_equiv_pos_site_id
 _symmetry_equiv_pos_as_xyz
  1  'x, y, z'
loop_
 _atom_type_symbol
 _atom_type_oxidation_number
  Li+  1.0
  I5+  5.0
  O2-  -2.0
loop_
 _atom_site_type_symbol
 _atom_site_label
 _atom_site_symmetry_multiplicity
 _atom_site_fract_x
 _atom_site_fract_y
 _atom_site_fract_z
 _atom_site_occupancy
  Li+  Li0  1  0.14422500  0.00000000  0.75000000  1.0
  Li+  Li1  1  0.64422500  0.00000000  0.75000000  1.0
  Li+  Li2  1  0.14422500  0.50000000  0.75000000  1.0
  Li+  Li3  1  0.64422500  0.50000000  0.75000000  1.0
  Li+  Li4  1  0.14422500  0.00000000  0.25000000  1.0
  Li+  Li5  1  0.64422500  0.00000000  0.25000000  1.0
  Li+  Li6  1  0.14422500  0.50000000  0.25000000  1.0
  Li+  Li7  1  0.64422500  0.50000000  0.25000000  1.0
  Li+  Li8  1  0.39515121  0.00266192  0.75204183  1.0
  Li+  Li9  1  0.89591268  0.00242275  0.74661002  1.0
  Li+  Li10  1  0.39422500  0.50000000  0.75000000  1.0
  Li+  Li11  1  0.89422500  0.50000000  0.75000000  1.0
  Li+  Li12  1  0.39422500  0.00000000  0.25000000  1.0
  Li+  Li13  1  0.89531953  0.99701152  0.24498545  1.0
  Li+  Li14  1  0.39422500  0.50000000  0.25000000  1.0
  Li+  Li15  1  0.89422500  0.50000000  0.25000000  1.0
  Li+  Li16  1  0.01922500  0.00000000  0.75000000  1.0
  Li+  Li17  1  0.51922500  0.00000000  0.75000000  1.0
  Li+  Li18  1  0.01922500  0.50000000  0.75000000  1.0
  Li+  Li19  1  0.52347689  0.49966212  0.74670458  1.0
  Li+  Li20  1  0.01922500  0.00000000  0.25000000  1.0
  Li+  Li21  1  0.51922500  0.00000000  0.25000000  1.0
  Li+  Li22  1  0.01922500  0.50000000  0.25000000  1.0
  Li+  Li23  1  0.52127690  0.50288160  0.25072255  1.0
  Li+  Li24  1  0.26922500  0.00000000  0.75000000  1.0
  Li+  Li25  1  0.76922500  0.00000000  0.75000000  1.0
  Li+  Li26  1  0.26855486  0.49463216  0.74755264  1.0
  Li+  Li27  1  0.76922500  0.50000000  0.75000000  1.0
  Li+  Li28  1  0.26922500  0.00000000  0.25000000  1.0
  Li+  Li29  1  0.76922500  0.00000000  0.25000000  1.0
  Li+  Li30  1  0.26922500  0.50000000  0.25000000  1.0
  Li+  Li31  1  0.76922500  0.50000000  0.25000000  1.0
  I5+  I32  1  0.12500000  0.66666667  0.58333333  1.0
  I5+  I33  1  0.62117097  0.66747400  0.58003062  1.0
  I5+  I34  1  0.12500000  0.16666667  0.58333333  1.0
  I5+  I35  1  0.62500000  0.16666667  0.58333333  1.0
  I5+  I36  1  0.12500000  0.66666667  0.08333333  1.0
  I5+  I37  1  0.62500000  0.66666667  0.08333333  1.0
  I5+  I38  1  0.12836937  0.16346666  0.08740392  1.0
  I5+  I39  1  0.62500000  0.16666667  0.08333333  1.0
  I5+  I40  1  0.37500000  0.66666667  0.58333333  1.0
  I5+  I41  1  0.87500000  0.66666667  0.58333333  1.0
  I5+  I42  1  0.37500000  0.16666667  0.58333333  1.0
  I5+  I43  1  0.87500000  0.16666667  0.58333333  1.0
  I5+  I44  1  0.37500000  0.66666667  0.08333333  1.0
  I5+  I45  1  0.87500000  0.66666667  0.08333333  1.0
  I5+  I46  1  0.37500000  0.16666667  0.08333333  1.0
  I5+  I47  1  0.87500000  0.16666667  0.08333333  1.0
  I5+  I48  1  0.25000000  0.83333333  0.41666667  1.0
  I5+  I49  1  0.75000000  0.83333333  0.41666667  1.0
  I5+  I50  1  0.24885294  0.33128662  0.41407580  1.0
  I5+  I51  1  0.75000000  0.33333333  0.41666667  1.0
  I5+  I52  1  0.24329194  0.83525249  0.91468004  1.0
  I5+  I53  1  0.75000000  0.83333333  0.91666667  1.0
  I5+  I54  1  0.25015522  0.33602410  0.91750292  1.0
  I5+  I55  1  0.75000000  0.33333333  0.91666667  1.0
  I5+  I56  1  0.00260644  0.83397773  0.42113956  1.0
  I5+  I57  1  0.50000000  0.83333333  0.41666667  1.0
  I5+  I58  1  0.00000000  0.33333333  0.41666667  1.0
  I5+  I59  1  0.50000000  0.33333333  0.41666667  1.0
  I5+  I60  1  0.00007365  0.83014059  0.91903780  1.0
  I5+  I61  1  0.50000000  0.83333333  0.91666667  1.0
  I5+  I62  1  0.00000000  0.33333333  0.91666667  1.0
  I5+  I63  1  0.49304696  0.32950200  0.91697267  1.0
  O2-  O64  1  0.08457500  0.87645000  0.29735000  1.0
  O2-  O65  1  0.58140475  0.87730122  0.29913122  1.0
  O2-  O66  1  0.08374666  0.38003711  0.29914274  1.0
  O2-  O67  1  0.58457500  0.37645000  0.29735000  1.0
  O2-  O68  1  0.08457500  0.87645000  0.79735000  1.0
  O2-  O69  1  0.58457500  0.87645000  0.79735000  1.0
  O2-  O70  1  0.08457500  0.37645000  0.79735000  1.0
  O2-  O71  1  0.58183961  0.37716030  0.79843887  1.0
  O2-  O72  1  0.33457500  0.87645000  0.29735000  1.0
  O2-  O73  1  0.83457500  0.87645000  0.29735000  1.0
  O2-  O74  1  0.33457500  0.37645000  0.29735000  1.0
  O2-  O75  1  0.83805308  0.37704694  0.29739789  1.0
  O2-  O76  1  0.33704545  0.87735806  0.79489484  1.0
  O2-  O77  1  0.83457500  0.87645000  0.79735000  1.0
  O2-  O78  1  0.33642743  0.37509983  0.79590419  1.0
  O2-  O79  1  0.83457500  0.37645000  0.79735000  1.0
  O2-  O80  1  0.08457500  0.67090000  0.37355000  1.0
  O2-  O81  1  0.58457500  0.67090000  0.37355000  1.0
  O2-  O82  1  0.08748753  0.17475523  0.37254915  1.0
  O2-  O83  1  0.58457500  0.17090000  0.37355000  1.0
  O2-  O84  1  0.08457500  0.67090000  0.87355000  1.0
  O2-  O85  1  0.58457500  0.67090000  0.87355000  1.0
  O2-  O86  1  0.08457500  0.17090000  0.87355000  1.0
  O2-  O87  1  0.58457500  0.17090000  0.87355000  1.0
  O2-  O88  1  0.33356615  0.67350579  0.37264929  1.0
  O2-  O89  1  0.83457500  0.67090000  0.37355000  1.0
  O2-  O90  1  0.33463434  0.16684747  0.37284892  1.0
  O2-  O91  1  0.83457500  0.17090000  0.37355000  1.0
  O2-  O92  1  0.33457500  0.67090000  0.87355000  1.0
  O2-  O93  1  0.83457500  0.67090000  0.87355000  1.0
  O2-  O94  1  0.33457500  0.17090000  0.87355000  1.0
  O2-  O95  1  0.83457500  0.17090000  0.87355000  1.0
  O2-  O96  1  0.08396158  0.95010152  0.57734701  1.0
  O2-  O97  1  0.58457500  0.95265000  0.57910000  1.0
  O2-  O98  1  0.08457500  0.45265000  0.57910000  1.0
  O2-  O99  1  0.58457500  0.45265000  0.57910000  1.0
  O2-  O100  1  0.08358999  0.95514637  0.07528082  1.0
  O2-  O101  1  0.58457500  0.95265000  0.07910000  1.0
  O2-  O102  1  0.08457500  0.45265000  0.07910000  1.0
  O2-  O103  1  0.58255812  0.45399037  0.07927642  1.0
  O2-  O104  1  0.33826192  0.94963380  0.58056217  1.0
  O2-  O105  1  0.83457500  0.95265000  0.57910000  1.0
  O2-  O106  1  0.33457500  0.45265000  0.57910000  1.0
  O2-  O107  1  0.83457500  0.45265000  0.57910000  1.0
  O2-  O108  1  0.33457500  0.95265000  0.07910000  1.0
  O2-  O109  1  0.83457500  0.95265000  0.07910000  1.0
  O2-  O110  1  0.33938582  0.44760774  0.07853946  1.0
  O2-  O111  1  0.83457500  0.45265000  0.07910000  1.0
  O2-  O112  1  0.20957500  0.62355000  0.70265000  1.0
  O2-  O113  1  0.70957500  0.62355000  0.70265000  1.0
  O2-  O114  1  0.20957500  0.12355000  0.70265000  1.0
  O2-  O115  1  0.70957500  0.12355000  0.70265000  1.0
  O2-  O116  1  0.20957500  0.62355000  0.20265000  1.0
  O2-  O117  1  0.70697086  0.62059122  0.20355343  1.0
  O2-  O118  1  0.20957500  0.12355000  0.20265000  1.0
  O2-  O119  1  0.70957500  0.12355000  0.20265000  1.0
  O2-  O120  1  0.45957500  0.62355000  0.70265000  1.0
  O2-  O121  1  0.95957500  0.62355000  0.70265000  1.0
  O2-  O122  1  0.45957500  0.12355000  0.70265000  1.0
  O2-  O123  1  0.95851978  0.12447176  0.69987329  1.0
  O2-  O124  1  0.45535144  0.62300207  0.19940355  1.0
  O2-  O125  1  0.95957500  0.62355000  0.20265000  1.0
  O2-  O126  1  0.46117462  0.12466531  0.20383081  1.0
  O2-  O127  1  0.95957500  0.12355000  0.20265000  1.0
  O2-  O128  1  0.21145902  0.83128798  0.62595335  1.0
  O2-  O129  1  0.70957500  0.82910000  0.62645000  1.0
  O2-  O130  1  0.20957500  0.32910000  0.62645000  1.0
  O2-  O131  1  0.70957500  0.32910000  0.62645000  1.0
  O2-  O132  1  0.20957500  0.82910000  0.12645000  1.0
  O2-  O133  1  0.70957500  0.82910000  0.12645000  1.0
  O2-  O134  1  0.20957500  0.32910000  0.12645000  1.0
  O2-  O135  1  0.70957500  0.32910000  0.12645000  1.0
  O2-  O136  1  0.45957500  0.82910000  0.62645000  1.0
  O2-  O137  1  0.95957500  0.82910000  0.62645000  1.0
  O2-  O138  1  0.45957500  0.32910000  0.62645000  1.0
  O2-  O139  1  0.95957500  0.32910000  0.62645000  1.0
  O2-  O140  1  0.45957500  0.82910000  0.12645000  1.0
  O2-  O141  1  0.95957500  0.82910000  0.12645000  1.0
  O2-  O142  1  0.46071951  0.32919819  0.12543138  1.0
  O2-  O143  1  0.95957500  0.32910000  0.12645000  1.0
  O2-  O144  1  0.21053731  0.54149939  0.42415669  1.0
  O2-  O145  1  0.70957500  0.54735000  0.42090000  1.0
  O2-  O146  1  0.20957500  0.04735000  0.42090000  1.0
  O2-  O147  1  0.70957500  0.04735000  0.42090000  1.0
  O2-  O148  1  0.20957500  0.54735000  0.92090000  1.0
  O2-  O149  1  0.70957500  0.54735000  0.92090000  1.0
  O2-  O150  1  0.21347444  0.04369477  0.92274242  1.0
  O2-  O151  1  0.70799144  0.04496936  0.92363619  1.0
  O2-  O152  1  0.46388792  0.54454303  0.41524364  1.0
  O2-  O153  1  0.95957500  0.54735000  0.42090000  1.0
  O2-  O154  1  0.45957500  0.04735000  0.42090000  1.0
  O2-  O155  1  0.95680071  0.04794294  0.42464003  1.0
  O2-  O156  1  0.45957500  0.54735000  0.92090000  1.0
  O2-  O157  1  0.96081046  0.55185674  0.91708409  1.0
  O2-  O158  1  0.45957500  0.04735000  0.92090000  1.0
  O2-  O159  1  0.95957500  0.04735000  0.92090000  1.0
