# generated using pymatgen
data_LiIO3
_symmetry_space_group_name_H-M   'P 1'
_cell_length_a   10.85038979
_cell_length_b   20.48439482
_cell_length_c   10.85038979
_cell_angle_alpha   90.00000000
_cell_angle_beta   60.00000000
_cell_angle_gamma   90.00000000
_symmetry_Int_Tables_number   1
_chemical_formula_structural   LiIO3
_chemical_formula_sum   'Li32 I32 O96'
_cell_volume   2088.54794662
_cell_formula_units_Z   32
loop_
 _symmetry_equiv_pos_site_id
 _symmetry_equiv_pos_as_xyz
  1  'x, y, z'
loop_
 _atom_type_symbol
 _atom_type_oxidation_number
  Li+  1.0
  I5+  5.0
  O2-  -2.0
loop_
 _atom_site_type_symbol
 _atom_site_label
 _atom_site_symmetry_multiplicity
 _atom_site_fract_x
 _atom_site_fract_y
 _atom_site_fract_z
 _atom_site_occupancy
  Li+  Li0  1  0.00000000  0.52244167  0.00000000  1.0
  Li+  Li1  1  0.00000000  0.02244167  0.00000000  1.0
  Li+  Li2  1  0.00000000  0.52244167  0.50000000  1.0
  Li+  Li3  1  0.00000000  0.02244167  0.50000000  1.0
  Li+  Li4  1  0.50000000  0.52244167  0.00000000  1.0
  Li+  Li5  1  0.50000000  0.02244167  0.00000000  1.0
  Li+  Li6  1  0.50000000  0.52244167  0.50000000  1.0
  Li+  Li7  1  0.50000000  0.02244167  0.50000000  1.0
  Li+  Li8  1  0.00000000  0.27244167  0.00000000  1.0
  Li+  Li9  1  0.00000000  0.77244167  0.00000000  1.0
  Li+  Li10  1  0.00000000  0.27244167  0.50000000  1.0
  Li+  Li11  1  0.00000000  0.77244167  0.50000000  1.0
  Li+  Li12  1  0.50000000  0.27244167  0.00000000  1.0
  Li+  Li13  1  0.50000000  0.77244167  0.00000000  1.0
  Li+  Li14  1  0.50000000  0.27244167  0.50000000  1.0
  Li+  Li15  1  0.50000000  0.77244167  0.50000000  1.0
  Li+  Li16  1  0.00000000  0.64744167  0.00000000  1.0
  Li+  Li17  1  0.00000000  0.14744167  0.00000000  1.0
  Li+  Li18  1  0.00000000  0.64744167  0.50000000  1.0
  Li+  Li19  1  0.00000000  0.14744167  0.50000000  1.0
  Li+  Li20  1  0.50000000  0.64744167  0.00000000  1.0
  Li+  Li21  1  0.50000000  0.14744167  0.00000000  1.0
  Li+  Li22  1  0.50000000  0.64744167  0.50000000  1.0
  Li+  Li23  1  0.50000000  0.14744167  0.50000000  1.0
  Li+  Li24  1  0.00000000  0.39744167  0.00000000  1.0
  Li+  Li25  1  0.00000000  0.89744167  0.00000000  1.0
  Li+  Li26  1  0.00000000  0.39744167  0.50000000  1.0
  Li+  Li27  1  0.00000000  0.89744167  0.50000000  1.0
  Li+  Li28  1  0.50000000  0.39744167  0.00000000  1.0
  Li+  Li29  1  0.50000000  0.89744167  0.00000000  1.0
  Li+  Li30  1  0.50000000  0.39744167  0.50000000  1.0
  Li+  Li31  1  0.50000000  0.89744167  0.50000000  1.0
  I5+  I32  1  0.83333333  0.54166667  0.33333333  1.0
  I5+  I33  1  0.83333333  0.04166667  0.33333333  1.0
  I5+  I34  1  0.83333333  0.54166667  0.83333333  1.0
  I5+  I35  1  0.83333333  0.04166667  0.83333333  1.0
  I5+  I36  1  0.33333333  0.54166667  0.33333333  1.0
  I5+  I37  1  0.33333333  0.04166667  0.33333333  1.0
  I5+  I38  1  0.33333333  0.54166667  0.83333333  1.0
  I5+  I39  1  0.33333333  0.04166667  0.83333333  1.0
  I5+  I40  1  0.83333333  0.29166667  0.33333333  1.0
  I5+  I41  1  0.83333333  0.79166667  0.33333333  1.0
  I5+  I42  1  0.83333333  0.29166667  0.83333333  1.0
  I5+  I43  1  0.83333333  0.79166667  0.83333333  1.0
  I5+  I44  1  0.33333333  0.29166667  0.33333333  1.0
  I5+  I45  1  0.33333333  0.79166667  0.33333333  1.0
  I5+  I46  1  0.33333333  0.29166667  0.83333333  1.0
  I5+  I47  1  0.33333333  0.79166667  0.83333333  1.0
  I5+  I48  1  0.66666667  0.41666667  0.16666667  1.0
  I5+  I49  1  0.66666667  0.91666667  0.16666667  1.0
  I5+  I50  1  0.66666667  0.41666667  0.66666667  1.0
  I5+  I51  1  0.66666667  0.91666667  0.66666667  1.0
  I5+  I52  1  0.16666667  0.41666667  0.16666667  1.0
  I5+  I53  1  0.16666667  0.91666667  0.16666667  1.0
  I5+  I54  1  0.16666667  0.41666667  0.66666667  1.0
  I5+  I55  1  0.16666667  0.91666667  0.66666667  1.0
  I5+  I56  1  0.66666667  0.66666667  0.16666667  1.0
  I5+  I57  1  0.66666667  0.16666667  0.16666667  1.0
  I5+  I58  1  0.66666667  0.66666667  0.66666667  1.0
  I5+  I59  1  0.66666667  0.16666667  0.66666667  1.0
  I5+  I60  1  0.16666667  0.66666667  0.16666667  1.0
  I5+  I61  1  0.16666667  0.16666667  0.16666667  1.0
  I5+  I62  1  0.16666667  0.66666667  0.66666667  1.0
  I5+  I63  1  0.16666667  0.16666667  0.66666667  1.0
  O2-  O64  1  0.54735000  0.58209167  0.12355000  1.0
  O2-  O65  1  0.54735000  0.08209167  0.12355000  1.0
  O2-  O66  1  0.54735000  0.58209167  0.62355000  1.0
  O2-  O67  1  0.54735000  0.08209167  0.62355000  1.0
  O2-  O68  1  0.04735000  0.58209167  0.12355000  1.0
  O2-  O69  1  0.04735000  0.08209167  0.12355000  1.0
  O2-  O70  1  0.04735000  0.58209167  0.62355000  1.0
  O2-  O71  1  0.04735000  0.08209167  0.62355000  1.0
  O2-  O72  1  0.54735000  0.33209167  0.12355000  1.0
  O2-  O73  1  0.54735000  0.83209167  0.12355000  1.0
  O2-  O74  1  0.54735000  0.33209167  0.62355000  1.0
  O2-  O75  1  0.54735000  0.83209167  0.62355000  1.0
  O2-  O76  1  0.04735000  0.33209167  0.12355000  1.0
  O2-  O77  1  0.04735000  0.83209167  0.12355000  1.0
  O2-  O78  1  0.04735000  0.33209167  0.62355000  1.0
  O2-  O79  1  0.04735000  0.83209167  0.62355000  1.0
  O2-  O80  1  0.62355000  0.58209167  0.32910000  1.0
  O2-  O81  1  0.62355000  0.08209167  0.32910000  1.0
  O2-  O82  1  0.62355000  0.58209167  0.82910000  1.0
  O2-  O83  1  0.62355000  0.08209167  0.82910000  1.0
  O2-  O84  1  0.12355000  0.58209167  0.32910000  1.0
  O2-  O85  1  0.12355000  0.08209167  0.32910000  1.0
  O2-  O86  1  0.12355000  0.58209167  0.82910000  1.0
  O2-  O87  1  0.12355000  0.08209167  0.82910000  1.0
  O2-  O88  1  0.62355000  0.33209167  0.32910000  1.0
  O2-  O89  1  0.62355000  0.83209167  0.32910000  1.0
  O2-  O90  1  0.62355000  0.33209167  0.82910000  1.0
  O2-  O91  1  0.62355000  0.83209167  0.82910000  1.0
  O2-  O92  1  0.12355000  0.33209167  0.32910000  1.0
  O2-  O93  1  0.12355000  0.83209167  0.32910000  1.0
  O2-  O94  1  0.12355000  0.33209167  0.82910000  1.0
  O2-  O95  1  0.12355000  0.83209167  0.82910000  1.0
  O2-  O96  1  0.82910000  0.58209167  0.04735000  1.0
  O2-  O97  1  0.82910000  0.08209167  0.04735000  1.0
  O2-  O98  1  0.82910000  0.58209167  0.54735000  1.0
  O2-  O99  1  0.82910000  0.08209167  0.54735000  1.0
  O2-  O100  1  0.32910000  0.58209167  0.04735000  1.0
  O2-  O101  1  0.32910000  0.08209167  0.04735000  1.0
  O2-  O102  1  0.32910000  0.58209167  0.54735000  1.0
  O2-  O103  1  0.32910000  0.08209167  0.54735000  1.0
  O2-  O104  1  0.82910000  0.33209167  0.04735000  1.0
  O2-  O105  1  0.82910000  0.83209167  0.04735000  1.0
  O2-  O106  1  0.82910000  0.33209167  0.54735000  1.0
  O2-  O107  1  0.82910000  0.83209167  0.54735000  1.0
  O2-  O108  1  0.32910000  0.33209167  0.04735000  1.0
  O2-  O109  1  0.32910000  0.83209167  0.04735000  1.0
  O2-  O110  1  0.32910000  0.33209167  0.54735000  1.0
  O2-  O111  1  0.32910000  0.83209167  0.54735000  1.0
  O2-  O112  1  0.95265000  0.45709167  0.37645000  1.0
  O2-  O113  1  0.95265000  0.95709167  0.37645000  1.0
  O2-  O114  1  0.95265000  0.45709167  0.87645000  1.0
  O2-  O115  1  0.95265000  0.95709167  0.87645000  1.0
  O2-  O116  1  0.45265000  0.45709167  0.37645000  1.0
  O2-  O117  1  0.45265000  0.95709167  0.37645000  1.0
  O2-  O118  1  0.45265000  0.45709167  0.87645000  1.0
  O2-  O119  1  0.45265000  0.95709167  0.87645000  1.0
  O2-  O120  1  0.95265000  0.20709167  0.37645000  1.0
  O2-  O121  1  0.95265000  0.70709167  0.37645000  1.0
  O2-  O122  1  0.95265000  0.20709167  0.87645000  1.0
  O2-  O123  1  0.95265000  0.70709167  0.87645000  1.0
  O2-  O124  1  0.45265000  0.20709167  0.37645000  1.0
  O2-  O125  1  0.45265000  0.70709167  0.37645000  1.0
  O2-  O126  1  0.45265000  0.20709167  0.87645000  1.0
  O2-  O127  1  0.45265000  0.70709167  0.87645000  1.0
  O2-  O128  1  0.87645000  0.45709167  0.17090000  1.0
  O2-  O129  1  0.87645000  0.95709167  0.17090000  1.0
  O2-  O130  1  0.87645000  0.45709167  0.67090000  1.0
  O2-  O131  1  0.87645000  0.95709167  0.67090000  1.0
  O2-  O132  1  0.37645000  0.45709167  0.17090000  1.0
  O2-  O133  1  0.37645000  0.95709167  0.17090000  1.0
  O2-  O134  1  0.37645000  0.45709167  0.67090000  1.0
  O2-  O135  1  0.37645000  0.95709167  0.67090000  1.0
  O2-  O136  1  0.87645000  0.20709167  0.17090000  1.0
  O2-  O137  1  0.87645000  0.70709167  0.17090000  1.0
  O2-  O138  1  0.87645000  0.20709167  0.67090000  1.0
  O2-  O139  1  0.87645000  0.70709167  0.67090000  1.0
  O2-  O140  1  0.37645000  0.20709167  0.17090000  1.0
  O2-  O141  1  0.37645000  0.70709167  0.17090000  1.0
  O2-  O142  1  0.37645000  0.20709167  0.67090000  1.0
  O2-  O143  1  0.37645000  0.70709167  0.67090000  1.0
  O2-  O144  1  0.67090000  0.45709167  0.45265000  1.0
  O2-  O145  1  0.67090000  0.95709167  0.45265000  1.0
  O2-  O146  1  0.67090000  0.45709167  0.95265000  1.0
  O2-  O147  1  0.67090000  0.95709167  0.95265000  1.0
  O2-  O148  1  0.17090000  0.45709167  0.45265000  1.0
  O2-  O149  1  0.17090000  0.95709167  0.45265000  1.0
  O2-  O150  1  0.17090000  0.45709167  0.95265000  1.0
  O2-  O151  1  0.17090000  0.95709167  0.95265000  1.0
  O2-  O152  1  0.67090000  0.20709167  0.45265000  1.0
  O2-  O153  1  0.67090000  0.70709167  0.45265000  1.0
  O2-  O154  1  0.67090000  0.20709167  0.95265000  1.0
  O2-  O155  1  0.67090000  0.70709167  0.95265000  1.0
  O2-  O156  1  0.17090000  0.20709167  0.45265000  1.0
  O2-  O157  1  0.17090000  0.70709167  0.45265000  1.0
  O2-  O158  1  0.17090000  0.20709167  0.95265000  1.0
  O2-  O159  1  0.17090000  0.70709167  0.95265000  1.0
