# generated using pymatgen
data_LiIO3
_symmetry_space_group_name_H-M   'P 1'
_cell_length_a   20.68000000
_cell_length_b   10.95400000
_cell_length_c   10.95400000
_cell_angle_alpha   120.00000000
_cell_angle_beta   90.00000000
_cell_angle_gamma   90.00000000
_symmetry_Int_Tables_number   1
_chemical_formula_structural   LiIO3
_chemical_formula_sum   'Li32 I32 O96'
_cell_volume   2148.95162547
_cell_formula_units_Z   32
loop_
 _symmetry_equiv_pos_site_id
 _symmetry_equiv_pos_as_xyz
  1  'x, y, z'
loop_
 _atom_type_symbol
 _atom_type_oxidation_number
  Li+  1.0
  I5+  5.0
  O2-  -2.0
loop_
 _atom_site_type_symbol
 _atom_site_label
 _atom_site_symmetry_multiplicity
 _atom_site_fract_x
 _atom_site_fract_y
 _atom_site_fract_z
 _atom_site_occupancy
  Li+  Li1  1  0.14422500  0.00000000  0.00000000  1.0
  Li+  Li1  1  0.64422500  0.00000000  0.00000000  1.0
  Li+  Li1  1  0.14422500  0.00000000  0.50000000  1.0
  Li+  Li1  1  0.64422500  0.00000000  0.50000000  1.0
  Li+  Li1  1  0.14422500  0.50000000  0.00000000  1.0
  Li+  Li1  1  0.64422500  0.50000000  0.00000000  1.0
  Li+  Li1  1  0.14422500  0.50000000  0.50000000  1.0
  Li+  Li1  1  0.64422500  0.50000000  0.50000000  1.0
  Li+  Li1  1  0.39422500  0.00000000  0.00000000  1.0
  Li+  Li1  1  0.89422500  0.00000000  0.00000000  1.0
  Li+  Li1  1  0.39422500  0.00000000  0.50000000  1.0
  Li+  Li1  1  0.89422500  0.00000000  0.50000000  1.0
  Li+  Li1  1  0.39422500  0.50000000  0.00000000  1.0
  Li+  Li1  1  0.89422500  0.50000000  0.00000000  1.0
  Li+  Li1  1  0.39422500  0.50000000  0.50000000  1.0
  Li+  Li1  1  0.89422500  0.50000000  0.50000000  1.0
  Li+  Li1  1  0.01922500  0.00000000  0.00000000  1.0
  Li+  Li1  1  0.51922500  0.00000000  0.00000000  1.0
  Li+  Li1  1  0.01922500  0.00000000  0.50000000  1.0
  Li+  Li1  1  0.51922500  0.00000000  0.50000000  1.0
  Li+  Li1  1  0.01922500  0.50000000  0.00000000  1.0
  Li+  Li1  1  0.51922500  0.50000000  0.00000000  1.0
  Li+  Li1  1  0.01922500  0.50000000  0.50000000  1.0
  Li+  Li1  1  0.51922500  0.50000000  0.50000000  1.0
  Li+  Li1  1  0.26922500  0.00000000  0.00000000  1.0
  Li+  Li1  1  0.76922500  0.00000000  0.00000000  1.0
  Li+  Li1  1  0.26922500  0.00000000  0.50000000  1.0
  Li+  Li1  1  0.76922500  0.00000000  0.50000000  1.0
  Li+  Li1  1  0.26922500  0.50000000  0.00000000  1.0
  Li+  Li1  1  0.76922500  0.50000000  0.00000000  1.0
  Li+  Li1  1  0.26922500  0.50000000  0.50000000  1.0
  Li+  Li1  1  0.76922500  0.50000000  0.50000000  1.0
  I5+  I1  1  0.12500000  0.16666667  0.33333333  1.0
  I5+  I1  1  0.62500000  0.16666667  0.33333333  1.0
  I5+  I1  1  0.12500000  0.16666667  0.83333333  1.0
  I5+  I1  1  0.62500000  0.16666667  0.83333333  1.0
  I5+  I1  1  0.12500000  0.66666667  0.33333333  1.0
  I5+  I1  1  0.62500000  0.66666667  0.33333333  1.0
  I5+  I1  1  0.12500000  0.66666667  0.83333333  1.0
  I5+  I1  1  0.62500000  0.66666667  0.83333333  1.0
  I5+  I1  1  0.37500000  0.16666667  0.33333333  1.0
  I5+  I1  1  0.87500000  0.16666667  0.33333333  1.0
  I5+  I1  1  0.37500000  0.16666667  0.83333333  1.0
  I5+  I1  1  0.87500000  0.16666667  0.83333333  1.0
  I5+  I1  1  0.37500000  0.66666667  0.33333333  1.0
  I5+  I1  1  0.87500000  0.66666667  0.33333333  1.0
  I5+  I1  1  0.37500000  0.66666667  0.83333333  1.0
  I5+  I1  1  0.87500000  0.66666667  0.83333333  1.0
  I5+  I1  1  0.25000000  0.33333333  0.16666667  1.0
  I5+  I1  1  0.75000000  0.33333333  0.16666667  1.0
  I5+  I1  1  0.25000000  0.33333333  0.66666667  1.0
  I5+  I1  1  0.75000000  0.33333333  0.66666667  1.0
  I5+  I1  1  0.25000000  0.83333333  0.16666667  1.0
  I5+  I1  1  0.75000000  0.83333333  0.16666667  1.0
  I5+  I1  1  0.25000000  0.83333333  0.66666667  1.0
  I5+  I1  1  0.75000000  0.83333333  0.66666667  1.0
  I5+  I1  1  0.00000000  0.33333333  0.16666667  1.0
  I5+  I1  1  0.50000000  0.33333333  0.16666667  1.0
  I5+  I1  1  0.00000000  0.33333333  0.66666667  1.0
  I5+  I1  1  0.50000000  0.33333333  0.66666667  1.0
  I5+  I1  1  0.00000000  0.83333333  0.16666667  1.0
  I5+  I1  1  0.50000000  0.83333333  0.16666667  1.0
  I5+  I1  1  0.00000000  0.83333333  0.66666667  1.0
  I5+  I1  1  0.50000000  0.83333333  0.66666667  1.0
  O2-  O1  1  0.08457500  0.45265000  0.12355000  1.0
  O2-  O1  1  0.58457500  0.45265000  0.12355000  1.0
  O2-  O1  1  0.08457500  0.45265000  0.62355000  1.0
  O2-  O1  1  0.58457500  0.45265000  0.62355000  1.0
  O2-  O1  1  0.08457500  0.95265000  0.12355000  1.0
  O2-  O1  1  0.58457500  0.95265000  0.12355000  1.0
  O2-  O1  1  0.08457500  0.95265000  0.62355000  1.0
  O2-  O1  1  0.58457500  0.95265000  0.62355000  1.0
  O2-  O1  1  0.33457500  0.45265000  0.12355000  1.0
  O2-  O1  1  0.83457500  0.45265000  0.12355000  1.0
  O2-  O1  1  0.33457500  0.45265000  0.62355000  1.0
  O2-  O1  1  0.83457500  0.45265000  0.62355000  1.0
  O2-  O1  1  0.33457500  0.95265000  0.12355000  1.0
  O2-  O1  1  0.83457500  0.95265000  0.12355000  1.0
  O2-  O1  1  0.33457500  0.95265000  0.62355000  1.0
  O2-  O1  1  0.83457500  0.95265000  0.62355000  1.0
  O2-  O1  1  0.08457500  0.37645000  0.32910000  1.0
  O2-  O1  1  0.58457500  0.37645000  0.32910000  1.0
  O2-  O1  1  0.08457500  0.37645000  0.82910000  1.0
  O2-  O1  1  0.58457500  0.37645000  0.82910000  1.0
  O2-  O1  1  0.08457500  0.87645000  0.32910000  1.0
  O2-  O1  1  0.58457500  0.87645000  0.32910000  1.0
  O2-  O1  1  0.08457500  0.87645000  0.82910000  1.0
  O2-  O1  1  0.58457500  0.87645000  0.82910000  1.0
  O2-  O1  1  0.33457500  0.37645000  0.32910000  1.0
  O2-  O1  1  0.83457500  0.37645000  0.32910000  1.0
  O2-  O1  1  0.33457500  0.37645000  0.82910000  1.0
  O2-  O1  1  0.83457500  0.37645000  0.82910000  1.0
  O2-  O1  1  0.33457500  0.87645000  0.32910000  1.0
  O2-  O1  1  0.83457500  0.87645000  0.32910000  1.0
  O2-  O1  1  0.33457500  0.87645000  0.82910000  1.0
  O2-  O1  1  0.83457500  0.87645000  0.82910000  1.0
  O2-  O1  1  0.08457500  0.17090000  0.04735000  1.0
  O2-  O1  1  0.58457500  0.17090000  0.04735000  1.0
  O2-  O1  1  0.08457500  0.17090000  0.54735000  1.0
  O2-  O1  1  0.58457500  0.17090000  0.54735000  1.0
  O2-  O1  1  0.08457500  0.67090000  0.04735000  1.0
  O2-  O1  1  0.58457500  0.67090000  0.04735000  1.0
  O2-  O1  1  0.08457500  0.67090000  0.54735000  1.0
  O2-  O1  1  0.58457500  0.67090000  0.54735000  1.0
  O2-  O1  1  0.33457500  0.17090000  0.04735000  1.0
  O2-  O1  1  0.83457500  0.17090000  0.04735000  1.0
  O2-  O1  1  0.33457500  0.17090000  0.54735000  1.0
  O2-  O1  1  0.83457500  0.17090000  0.54735000  1.0
  O2-  O1  1  0.33457500  0.67090000  0.04735000  1.0
  O2-  O1  1  0.83457500  0.67090000  0.04735000  1.0
  O2-  O1  1  0.33457500  0.67090000  0.54735000  1.0
  O2-  O1  1  0.83457500  0.67090000  0.54735000  1.0
  O2-  O1  1  0.20957500  0.04735000  0.37645000  1.0
  O2-  O1  1  0.70957500  0.04735000  0.37645000  1.0
  O2-  O1  1  0.20957500  0.04735000  0.87645000  1.0
  O2-  O1  1  0.70957500  0.04735000  0.87645000  1.0
  O2-  O1  1  0.20957500  0.54735000  0.37645000  1.0
  O2-  O1  1  0.70957500  0.54735000  0.37645000  1.0
  O2-  O1  1  0.20957500  0.54735000  0.87645000  1.0
  O2-  O1  1  0.70957500  0.54735000  0.87645000  1.0
  O2-  O1  1  0.45957500  0.04735000  0.37645000  1.0
  O2-  O1  1  0.95957500  0.04735000  0.37645000  1.0
  O2-  O1  1  0.45957500  0.04735000  0.87645000  1.0
  O2-  O1  1  0.95957500  0.04735000  0.87645000  1.0
  O2-  O1  1  0.45957500  0.54735000  0.37645000  1.0
  O2-  O1  1  0.95957500  0.54735000  0.37645000  1.0
  O2-  O1  1  0.45957500  0.54735000  0.87645000  1.0
  O2-  O1  1  0.95957500  0.54735000  0.87645000  1.0
  O2-  O1  1  0.20957500  0.12355000  0.17090000  1.0
  O2-  O1  1  0.70957500  0.12355000  0.17090000  1.0
  O2-  O1  1  0.20957500  0.12355000  0.67090000  1.0
  O2-  O1  1  0.70957500  0.12355000  0.67090000  1.0
  O2-  O1  1  0.20957500  0.62355000  0.17090000  1.0
  O2-  O1  1  0.70957500  0.62355000  0.17090000  1.0
  O2-  O1  1  0.20957500  0.62355000  0.67090000  1.0
  O2-  O1  1  0.70957500  0.62355000  0.67090000  1.0
  O2-  O1  1  0.45957500  0.12355000  0.17090000  1.0
  O2-  O1  1  0.95957500  0.12355000  0.17090000  1.0
  O2-  O1  1  0.45957500  0.12355000  0.67090000  1.0
  O2-  O1  1  0.95957500  0.12355000  0.67090000  1.0
  O2-  O1  1  0.45957500  0.62355000  0.17090000  1.0
  O2-  O1  1  0.95957500  0.62355000  0.17090000  1.0
  O2-  O1  1  0.45957500  0.62355000  0.67090000  1.0
  O2-  O1  1  0.95957500  0.62355000  0.67090000  1.0
  O2-  O1  1  0.20957500  0.32910000  0.45265000  1.0
  O2-  O1  1  0.70957500  0.32910000  0.45265000  1.0
  O2-  O1  1  0.20957500  0.32910000  0.95265000  1.0
  O2-  O1  1  0.70957500  0.32910000  0.95265000  1.0
  O2-  O1  1  0.20957500  0.82910000  0.45265000  1.0
  O2-  O1  1  0.70957500  0.82910000  0.45265000  1.0
  O2-  O1  1  0.20957500  0.82910000  0.95265000  1.0
  O2-  O1  1  0.70957500  0.82910000  0.95265000  1.0
  O2-  O1  1  0.45957500  0.32910000  0.45265000  1.0
  O2-  O1  1  0.95957500  0.32910000  0.45265000  1.0
  O2-  O1  1  0.45957500  0.32910000  0.95265000  1.0
  O2-  O1  1  0.95957500  0.32910000  0.95265000  1.0
  O2-  O1  1  0.45957500  0.82910000  0.45265000  1.0
  O2-  O1  1  0.95957500  0.82910000  0.45265000  1.0
  O2-  O1  1  0.45957500  0.82910000  0.95265000  1.0
  O2-  O1  1  0.95957500  0.82910000  0.95265000  1.0
