# generated using pymatgen
data_Li3PS4
_symmetry_space_group_name_H-M   'P 1'
_cell_length_a   12.27300000
_cell_length_b   13.07042000
_cell_length_c   23.12487000
_cell_angle_alpha   90.00000000
_cell_angle_beta   90.00000000
_cell_angle_gamma   90.00000000
_symmetry_Int_Tables_number   1
_chemical_formula_structural   Li3PS4
_chemical_formula_sum   'Li72 P24 S96'
_cell_volume   3709.53589154
_cell_formula_units_Z   24
loop_
 _symmetry_equiv_pos_site_id
 _symmetry_equiv_pos_as_xyz
  1  'x, y, z'
loop_
 _atom_type_symbol
 _atom_type_oxidation_number
  Li+  1.0
  P5+  5.0
  S2-  -2.0
loop_
 _atom_site_type_symbol
 _atom_site_label
 _atom_site_symmetry_multiplicity
 _atom_site_fract_x
 _atom_site_fract_y
 _atom_site_fract_z
 _atom_site_occupancy
  Li+  Li1  1  0.24105000  0.16545000  0.08326667  1.0
  Li+  Li1  1  0.24105000  0.16545000  0.41660000  1.0
  Li+  Li1  1  0.24105000  0.16545000  0.74993333  1.0
  Li+  Li1  1  0.24105000  0.66545000  0.08326667  1.0
  Li+  Li1  1  0.24105000  0.66545000  0.41660000  1.0
  Li+  Li1  1  0.24105000  0.66545000  0.74993333  1.0
  Li+  Li1  1  0.74105000  0.16545000  0.08326667  1.0
  Li+  Li1  1  0.74105000  0.16545000  0.41660000  1.0
  Li+  Li1  1  0.74105000  0.16545000  0.74993333  1.0
  Li+  Li1  1  0.74105000  0.66545000  0.08326667  1.0
  Li+  Li1  1  0.74105000  0.66545000  0.41660000  1.0
  Li+  Li1  1  0.74105000  0.66545000  0.74993333  1.0
  Li+  Li1  1  0.24105000  0.16545000  0.25006667  1.0
  Li+  Li1  1  0.24105000  0.16545000  0.58340000  1.0
  Li+  Li1  1  0.24105000  0.16545000  0.91673333  1.0
  Li+  Li1  1  0.24105000  0.66545000  0.25006667  1.0
  Li+  Li1  1  0.24105000  0.66545000  0.58340000  1.0
  Li+  Li1  1  0.24105000  0.66545000  0.91673333  1.0
  Li+  Li1  1  0.74105000  0.16545000  0.25006667  1.0
  Li+  Li1  1  0.74105000  0.16545000  0.58340000  1.0
  Li+  Li1  1  0.74105000  0.16545000  0.91673333  1.0
  Li+  Li1  1  0.74105000  0.66545000  0.25006667  1.0
  Li+  Li1  1  0.74105000  0.66545000  0.58340000  1.0
  Li+  Li1  1  0.74105000  0.66545000  0.91673333  1.0
  Li+  Li1  1  0.49105000  0.33455000  0.08340000  1.0
  Li+  Li1  1  0.49105000  0.33455000  0.41673333  1.0
  Li+  Li1  1  0.49105000  0.33455000  0.75006667  1.0
  Li+  Li1  1  0.49105000  0.83455000  0.08340000  1.0
  Li+  Li1  1  0.49105000  0.83455000  0.41673333  1.0
  Li+  Li1  1  0.49105000  0.83455000  0.75006667  1.0
  Li+  Li1  1  0.99105000  0.33455000  0.08340000  1.0
  Li+  Li1  1  0.99105000  0.33455000  0.41673333  1.0
  Li+  Li1  1  0.99105000  0.33455000  0.75006667  1.0
  Li+  Li1  1  0.99105000  0.83455000  0.08340000  1.0
  Li+  Li1  1  0.99105000  0.83455000  0.41673333  1.0
  Li+  Li1  1  0.99105000  0.83455000  0.75006667  1.0
  Li+  Li1  1  0.49105000  0.33455000  0.24993333  1.0
  Li+  Li1  1  0.49105000  0.33455000  0.58326667  1.0
  Li+  Li1  1  0.49105000  0.33455000  0.91660000  1.0
  Li+  Li1  1  0.49105000  0.83455000  0.24993333  1.0
  Li+  Li1  1  0.49105000  0.83455000  0.58326667  1.0
  Li+  Li1  1  0.49105000  0.83455000  0.91660000  1.0
  Li+  Li1  1  0.99105000  0.33455000  0.24993333  1.0
  Li+  Li1  1  0.99105000  0.33455000  0.58326667  1.0
  Li+  Li1  1  0.99105000  0.33455000  0.91660000  1.0
  Li+  Li1  1  0.99105000  0.83455000  0.24993333  1.0
  Li+  Li1  1  0.99105000  0.83455000  0.58326667  1.0
  Li+  Li1  1  0.99105000  0.83455000  0.91660000  1.0
  Li+  Li2  1  0.00700000  0.07250000  0.16666667  1.0
  Li+  Li2  1  0.00700000  0.07250000  0.50000000  1.0
  Li+  Li2  1  0.00700000  0.07250000  0.83333333  1.0
  Li+  Li2  1  0.00700000  0.57250000  0.16666667  1.0
  Li+  Li2  1  0.00700000  0.57250000  0.50000000  1.0
  Li+  Li2  1  0.00700000  0.57250000  0.83333333  1.0
  Li+  Li2  1  0.50700000  0.07250000  0.16666667  1.0
  Li+  Li2  1  0.50700000  0.07250000  0.50000000  1.0
  Li+  Li2  1  0.50700000  0.07250000  0.83333333  1.0
  Li+  Li2  1  0.50700000  0.57250000  0.16666667  1.0
  Li+  Li2  1  0.50700000  0.57250000  0.50000000  1.0
  Li+  Li2  1  0.50700000  0.57250000  0.83333333  1.0
  Li+  Li2  1  0.25700000  0.42750000  0.00000000  1.0
  Li+  Li2  1  0.25700000  0.42750000  0.33333333  1.0
  Li+  Li2  1  0.25700000  0.42750000  0.66666667  1.0
  Li+  Li2  1  0.25700000  0.92750000  0.00000000  1.0
  Li+  Li2  1  0.25700000  0.92750000  0.33333333  1.0
  Li+  Li2  1  0.25700000  0.92750000  0.66666667  1.0
  Li+  Li2  1  0.75700000  0.42750000  0.00000000  1.0
  Li+  Li2  1  0.75700000  0.42750000  0.33333333  1.0
  Li+  Li2  1  0.75700000  0.42750000  0.66666667  1.0
  Li+  Li2  1  0.75700000  0.92750000  0.00000000  1.0
  Li+  Li2  1  0.75700000  0.92750000  0.33333333  1.0
  Li+  Li2  1  0.75700000  0.92750000  0.66666667  1.0
  P5+  P1  1  0.25290000  0.41090000  0.16666667  1.0
  P5+  P1  1  0.25290000  0.41090000  0.50000000  1.0
  P5+  P1  1  0.25290000  0.41090000  0.83333333  1.0
  P5+  P1  1  0.25290000  0.91090000  0.16666667  1.0
  P5+  P1  1  0.25290000  0.91090000  0.50000000  1.0
  P5+  P1  1  0.25290000  0.91090000  0.83333333  1.0
  P5+  P1  1  0.75290000  0.41090000  0.16666667  1.0
  P5+  P1  1  0.75290000  0.41090000  0.50000000  1.0
  P5+  P1  1  0.75290000  0.41090000  0.83333333  1.0
  P5+  P1  1  0.75290000  0.91090000  0.16666667  1.0
  P5+  P1  1  0.75290000  0.91090000  0.50000000  1.0
  P5+  P1  1  0.75290000  0.91090000  0.83333333  1.0
  P5+  P1  1  0.00290000  0.08910000  0.00000000  1.0
  P5+  P1  1  0.00290000  0.08910000  0.33333333  1.0
  P5+  P1  1  0.00290000  0.08910000  0.66666667  1.0
  P5+  P1  1  0.00290000  0.58910000  0.00000000  1.0
  P5+  P1  1  0.00290000  0.58910000  0.33333333  1.0
  P5+  P1  1  0.00290000  0.58910000  0.66666667  1.0
  P5+  P1  1  0.50290000  0.08910000  0.00000000  1.0
  P5+  P1  1  0.50290000  0.08910000  0.33333333  1.0
  P5+  P1  1  0.50290000  0.08910000  0.66666667  1.0
  P5+  P1  1  0.50290000  0.58910000  0.00000000  1.0
  P5+  P1  1  0.50290000  0.58910000  0.33333333  1.0
  P5+  P1  1  0.50290000  0.58910000  0.66666667  1.0
  S2-  S1  1  0.30715000  0.33585000  0.09383333  1.0
  S2-  S1  1  0.30715000  0.33585000  0.42716667  1.0
  S2-  S1  1  0.30715000  0.33585000  0.76050000  1.0
  S2-  S1  1  0.30715000  0.83585000  0.09383333  1.0
  S2-  S1  1  0.30715000  0.83585000  0.42716667  1.0
  S2-  S1  1  0.30715000  0.83585000  0.76050000  1.0
  S2-  S1  1  0.80715000  0.33585000  0.09383333  1.0
  S2-  S1  1  0.80715000  0.33585000  0.42716667  1.0
  S2-  S1  1  0.80715000  0.33585000  0.76050000  1.0
  S2-  S1  1  0.80715000  0.83585000  0.09383333  1.0
  S2-  S1  1  0.80715000  0.83585000  0.42716667  1.0
  S2-  S1  1  0.80715000  0.83585000  0.76050000  1.0
  S2-  S1  1  0.30715000  0.33585000  0.23950000  1.0
  S2-  S1  1  0.30715000  0.33585000  0.57283333  1.0
  S2-  S1  1  0.30715000  0.33585000  0.90616667  1.0
  S2-  S1  1  0.30715000  0.83585000  0.23950000  1.0
  S2-  S1  1  0.30715000  0.83585000  0.57283333  1.0
  S2-  S1  1  0.30715000  0.83585000  0.90616667  1.0
  S2-  S1  1  0.80715000  0.33585000  0.23950000  1.0
  S2-  S1  1  0.80715000  0.33585000  0.57283333  1.0
  S2-  S1  1  0.80715000  0.33585000  0.90616667  1.0
  S2-  S1  1  0.80715000  0.83585000  0.23950000  1.0
  S2-  S1  1  0.80715000  0.83585000  0.57283333  1.0
  S2-  S1  1  0.80715000  0.83585000  0.90616667  1.0
  S2-  S1  1  0.05715000  0.16415000  0.07283333  1.0
  S2-  S1  1  0.05715000  0.16415000  0.40616667  1.0
  S2-  S1  1  0.05715000  0.16415000  0.73950000  1.0
  S2-  S1  1  0.05715000  0.66415000  0.07283333  1.0
  S2-  S1  1  0.05715000  0.66415000  0.40616667  1.0
  S2-  S1  1  0.05715000  0.66415000  0.73950000  1.0
  S2-  S1  1  0.55715000  0.16415000  0.07283333  1.0
  S2-  S1  1  0.55715000  0.16415000  0.40616667  1.0
  S2-  S1  1  0.55715000  0.16415000  0.73950000  1.0
  S2-  S1  1  0.55715000  0.66415000  0.07283333  1.0
  S2-  S1  1  0.55715000  0.66415000  0.40616667  1.0
  S2-  S1  1  0.55715000  0.66415000  0.73950000  1.0
  S2-  S1  1  0.05715000  0.16415000  0.26050000  1.0
  S2-  S1  1  0.05715000  0.16415000  0.59383333  1.0
  S2-  S1  1  0.05715000  0.16415000  0.92716667  1.0
  S2-  S1  1  0.05715000  0.66415000  0.26050000  1.0
  S2-  S1  1  0.05715000  0.66415000  0.59383333  1.0
  S2-  S1  1  0.05715000  0.66415000  0.92716667  1.0
  S2-  S1  1  0.55715000  0.16415000  0.26050000  1.0
  S2-  S1  1  0.55715000  0.16415000  0.59383333  1.0
  S2-  S1  1  0.55715000  0.16415000  0.92716667  1.0
  S2-  S1  1  0.55715000  0.66415000  0.26050000  1.0
  S2-  S1  1  0.55715000  0.66415000  0.59383333  1.0
  S2-  S1  1  0.55715000  0.66415000  0.92716667  1.0
  S2-  S2  1  0.30600000  0.05415000  0.16666667  1.0
  S2-  S2  1  0.30600000  0.05415000  0.50000000  1.0
  S2-  S2  1  0.30600000  0.05415000  0.83333333  1.0
  S2-  S2  1  0.30600000  0.55415000  0.16666667  1.0
  S2-  S2  1  0.30600000  0.55415000  0.50000000  1.0
  S2-  S2  1  0.30600000  0.55415000  0.83333333  1.0
  S2-  S2  1  0.80600000  0.05415000  0.16666667  1.0
  S2-  S2  1  0.80600000  0.05415000  0.50000000  1.0
  S2-  S2  1  0.80600000  0.05415000  0.83333333  1.0
  S2-  S2  1  0.80600000  0.55415000  0.16666667  1.0
  S2-  S2  1  0.80600000  0.55415000  0.50000000  1.0
  S2-  S2  1  0.80600000  0.55415000  0.83333333  1.0
  S2-  S2  1  0.05600000  0.44585000  0.00000000  1.0
  S2-  S2  1  0.05600000  0.44585000  0.33333333  1.0
  S2-  S2  1  0.05600000  0.44585000  0.66666667  1.0
  S2-  S2  1  0.05600000  0.94585000  0.00000000  1.0
  S2-  S2  1  0.05600000  0.94585000  0.33333333  1.0
  S2-  S2  1  0.05600000  0.94585000  0.66666667  1.0
  S2-  S2  1  0.55600000  0.44585000  0.00000000  1.0
  S2-  S2  1  0.55600000  0.44585000  0.33333333  1.0
  S2-  S2  1  0.55600000  0.44585000  0.66666667  1.0
  S2-  S2  1  0.55600000  0.94585000  0.00000000  1.0
  S2-  S2  1  0.55600000  0.94585000  0.33333333  1.0
  S2-  S2  1  0.55600000  0.94585000  0.66666667  1.0
  S2-  S3  1  0.08850000  0.40245000  0.16666667  1.0
  S2-  S3  1  0.08850000  0.40245000  0.50000000  1.0
  S2-  S3  1  0.08850000  0.40245000  0.83333333  1.0
  S2-  S3  1  0.08850000  0.90245000  0.16666667  1.0
  S2-  S3  1  0.08850000  0.90245000  0.50000000  1.0
  S2-  S3  1  0.08850000  0.90245000  0.83333333  1.0
  S2-  S3  1  0.58850000  0.40245000  0.16666667  1.0
  S2-  S3  1  0.58850000  0.40245000  0.50000000  1.0
  S2-  S3  1  0.58850000  0.40245000  0.83333333  1.0
  S2-  S3  1  0.58850000  0.90245000  0.16666667  1.0
  S2-  S3  1  0.58850000  0.90245000  0.50000000  1.0
  S2-  S3  1  0.58850000  0.90245000  0.83333333  1.0
  S2-  S3  1  0.33850000  0.09755000  0.00000000  1.0
  S2-  S3  1  0.33850000  0.09755000  0.33333333  1.0
  S2-  S3  1  0.33850000  0.09755000  0.66666667  1.0
  S2-  S3  1  0.33850000  0.59755000  0.00000000  1.0
  S2-  S3  1  0.33850000  0.59755000  0.33333333  1.0
  S2-  S3  1  0.33850000  0.59755000  0.66666667  1.0
  S2-  S3  1  0.83850000  0.09755000  0.00000000  1.0
  S2-  S3  1  0.83850000  0.09755000  0.33333333  1.0
  S2-  S3  1  0.83850000  0.09755000  0.66666667  1.0
  S2-  S3  1  0.83850000  0.59755000  0.00000000  1.0
  S2-  S3  1  0.83850000  0.59755000  0.33333333  1.0
  S2-  S3  1  0.83850000  0.59755000  0.66666667  1.0
