# generated using pymatgen
data_Li7BiO6
_symmetry_space_group_name_H-M   'P 1'
_cell_length_a   10.88537379
_cell_length_b   17.95878423
_cell_length_c   11.01420000
_cell_angle_alpha   63.27439087
_cell_angle_beta   119.41999888
_cell_angle_gamma   116.08539134
_symmetry_Int_Tables_number   1
_chemical_formula_structural   Li7BiO6
_chemical_formula_sum   'Li84 Bi12 O72'
_cell_volume   1607.50939624
_cell_formula_units_Z   12
loop_
 _symmetry_equiv_pos_site_id
 _symmetry_equiv_pos_as_xyz
  1  'x, y, z'
loop_
 _atom_type_symbol
 _atom_type_oxidation_number
  Li+  1.0
  Bi5+  5.0
  O2-  -2.0
loop_
 _atom_site_type_symbol
 _atom_site_label
 _atom_site_symmetry_multiplicity
 _atom_site_fract_x
 _atom_site_fract_y
 _atom_site_fract_z
 _atom_site_occupancy
  Li+  Li0  1  0.03500000  0.78933333  0.35650000  1.0
  Li+  Li1  1  0.03500000  0.45600000  0.35650000  1.0
  Li+  Li2  1  0.03500000  0.12266667  0.35650000  1.0
  Li+  Li3  1  0.03500000  0.78933333  0.85650000  1.0
  Li+  Li4  1  0.03500000  0.45600000  0.85650000  1.0
  Li+  Li5  1  0.03500000  0.12266667  0.85650000  1.0
  Li+  Li6  1  0.53500000  0.78933333  0.35650000  1.0
  Li+  Li7  1  0.53500000  0.45600000  0.35650000  1.0
  Li+  Li8  1  0.53500000  0.12266667  0.35650000  1.0
  Li+  Li9  1  0.53500000  0.78933333  0.85650000  1.0
  Li+  Li10  1  0.53454396  0.45691491  0.85581461  1.0
  Li+  Li11  1  0.53637084  0.12488546  0.86410122  1.0
  Li+  Li12  1  0.46500000  0.87733333  0.64350000  1.0
  Li+  Li13  1  0.46500000  0.54400000  0.64350000  1.0
  Li+  Li14  1  0.46500000  0.21066667  0.64350000  1.0
  Li+  Li15  1  0.46500000  0.87733333  0.14350000  1.0
  Li+  Li16  1  0.46500000  0.54400000  0.14350000  1.0
  Li+  Li17  1  0.46563686  0.20553144  0.14409935  1.0
  Li+  Li18  1  0.96279150  0.87475553  0.64250861  1.0
  Li+  Li19  1  0.96908706  0.54466887  0.64171751  1.0
  Li+  Li20  1  0.96500000  0.21066667  0.64350000  1.0
  Li+  Li21  1  0.96519454  0.87679446  0.14178148  1.0
  Li+  Li22  1  0.96500000  0.54400000  0.14350000  1.0
  Li+  Li23  1  0.96648893  0.20701386  0.14523730  1.0
  Li+  Li24  1  0.09500000  0.87400000  0.97250000  1.0
  Li+  Li25  1  0.09500000  0.54066667  0.97250000  1.0
  Li+  Li26  1  0.09500000  0.20733333  0.97250000  1.0
  Li+  Li27  1  0.59500000  0.87400000  0.47250000  1.0
  Li+  Li28  1  0.58985901  0.54074262  0.47565320  1.0
  Li+  Li29  1  0.59500000  0.20733333  0.47250000  1.0
  Li+  Li30  1  0.59500000  0.87400000  0.97250000  1.0
  Li+  Li31  1  0.59500000  0.54066667  0.97250000  1.0
  Li+  Li32  1  0.59500000  0.20733333  0.97250000  1.0
  Li+  Li33  1  0.40500000  0.79266667  0.52750000  1.0
  Li+  Li34  1  0.40403063  0.46333277  0.52730878  1.0
  Li+  Li35  1  0.40500000  0.12600000  0.52750000  1.0
  Li+  Li36  1  0.40500000  0.79266667  0.02750000  1.0
  Li+  Li37  1  0.40500000  0.45933333  0.02750000  1.0
  Li+  Li38  1  0.40661286  0.12496608  0.02695909  1.0
  Li+  Li39  1  0.90500000  0.79266667  0.52750000  1.0
  Li+  Li40  1  0.90292527  0.45407777  0.52380746  1.0
  Li+  Li41  1  0.90500000  0.12600000  0.52750000  1.0
  Li+  Li42  1  0.90500000  0.79266667  0.02750000  1.0
  Li+  Li43  1  0.90500000  0.45933333  0.02750000  1.0
  Li+  Li44  1  0.90500000  0.12600000  0.02750000  1.0
  Li+  Li45  1  0.26800000  0.87833333  0.32950000  1.0
  Li+  Li46  1  0.26394223  0.54143906  0.33031439  1.0
  Li+  Li47  1  0.26800000  0.21166667  0.32950000  1.0
  Li+  Li48  1  0.26800000  0.87833333  0.82950000  1.0
  Li+  Li49  1  0.26800000  0.54500000  0.82950000  1.0
  Li+  Li50  1  0.26800000  0.21166667  0.82950000  1.0
  Li+  Li51  1  0.76800000  0.87833333  0.32950000  1.0
  Li+  Li52  1  0.76800000  0.54500000  0.32950000  1.0
  Li+  Li53  1  0.76800000  0.21166667  0.32950000  1.0
  Li+  Li54  1  0.76800000  0.87833333  0.82950000  1.0
  Li+  Li55  1  0.76593491  0.54390487  0.82885661  1.0
  Li+  Li56  1  0.76800000  0.21166667  0.82950000  1.0
  Li+  Li57  1  0.23200000  0.78833333  0.67050000  1.0
  Li+  Li58  1  0.23200000  0.45500000  0.67050000  1.0
  Li+  Li59  1  0.23856038  0.12043101  0.67085353  1.0
  Li+  Li60  1  0.23200000  0.78833333  0.17050000  1.0
  Li+  Li61  1  0.23200000  0.45500000  0.17050000  1.0
  Li+  Li62  1  0.23200000  0.12166667  0.17050000  1.0
  Li+  Li63  1  0.17950000  0.67733333  0.58500000  1.0
  Li+  Li64  1  0.17950000  0.34400000  0.58500000  1.0
  Li+  Li65  1  0.17458520  0.00741420  0.58233136  1.0
  Li+  Li66  1  0.17950000  0.67733333  0.08500000  1.0
  Li+  Li67  1  0.17950000  0.34400000  0.08500000  1.0
  Li+  Li68  1  0.17950000  0.01066667  0.08500000  1.0
  Li+  Li69  1  0.67950000  0.67733333  0.58500000  1.0
  Li+  Li70  1  0.67763526  0.34370450  0.58715445  1.0
  Li+  Li71  1  0.67950000  0.01066667  0.58500000  1.0
  Li+  Li72  1  0.67950000  0.67733333  0.08500000  1.0
  Li+  Li73  1  0.68145489  0.33905965  0.08284681  1.0
  Li+  Li74  1  0.67950000  0.01066667  0.08500000  1.0
  Li+  Li75  1  0.32050000  0.98933333  0.41500000  1.0
  Li+  Li76  1  0.32050000  0.65600000  0.41500000  1.0
  Li+  Li77  1  0.32050000  0.32266667  0.41500000  1.0
  Li+  Li78  1  0.82131059  0.98931979  0.41420406  1.0
  Li+  Li79  1  0.82050000  0.65600000  0.41500000  1.0
  Li+  Li80  1  0.82050000  0.32266667  0.41500000  1.0
  Li+  Li81  1  0.82050000  0.98933333  0.91500000  1.0
  Li+  Li82  1  0.82266521  0.65654369  0.91518841  1.0
  Li+  Li83  1  0.82050000  0.32266667  0.91500000  1.0
  Bi5+  Bi84  1  0.00000000  0.00000000  0.75000000  1.0
  Bi5+  Bi85  1  0.00000000  0.66666667  0.75000000  1.0
  Bi5+  Bi86  1  0.99546914  0.33026898  0.75166582  1.0
  Bi5+  Bi87  1  0.00000000  0.00000000  0.25000000  1.0
  Bi5+  Bi88  1  0.00188705  0.66584563  0.24927201  1.0
  Bi5+  Bi89  1  0.00240558  0.33153510  0.24717947  1.0
  Bi5+  Bi90  1  0.50000000  0.00000000  0.75000000  1.0
  Bi5+  Bi91  1  0.50000000  0.66666667  0.75000000  1.0
  Bi5+  Bi92  1  0.50308465  0.33205563  0.74886067  1.0
  Bi5+  Bi93  1  0.49575009  0.00088254  0.25154383  1.0
  Bi5+  Bi94  1  0.50282509  0.67306556  0.24790391  1.0
  Bi5+  Bi95  1  0.50000000  0.33333333  0.25000000  1.0
  O2-  O96  1  0.19650000  0.74800000  0.36900000  1.0
  O2-  O97  1  0.19650000  0.41466667  0.36900000  1.0
  O2-  O98  1  0.19650000  0.08133333  0.36900000  1.0
  O2-  O99  1  0.19650000  0.74800000  0.86900000  1.0
  O2-  O100  1  0.19650000  0.41466667  0.86900000  1.0
  O2-  O101  1  0.19650000  0.08133333  0.86900000  1.0
  O2-  O102  1  0.69522735  0.74624832  0.36464693  1.0
  O2-  O103  1  0.69650000  0.41466667  0.36900000  1.0
  O2-  O104  1  0.69840042  0.08211378  0.37085815  1.0
  O2-  O105  1  0.69650000  0.74800000  0.86900000  1.0
  O2-  O106  1  0.69812991  0.41848016  0.86944967  1.0
  O2-  O107  1  0.69650000  0.08133333  0.86900000  1.0
  O2-  O108  1  0.30350000  0.91866667  0.63100000  1.0
  O2-  O109  1  0.30350000  0.58533333  0.63100000  1.0
  O2-  O110  1  0.30396116  0.25401651  0.63182555  1.0
  O2-  O111  1  0.30350000  0.91866667  0.13100000  1.0
  O2-  O112  1  0.30350000  0.58533333  0.13100000  1.0
  O2-  O113  1  0.30472405  0.25143242  0.13575587  1.0
  O2-  O114  1  0.80350000  0.91866667  0.63100000  1.0
  O2-  O115  1  0.80232945  0.58333282  0.62637777  1.0
  O2-  O116  1  0.80350000  0.25200000  0.63100000  1.0
  O2-  O117  1  0.80350000  0.91866667  0.13100000  1.0
  O2-  O118  1  0.80383082  0.58413731  0.13236532  1.0
  O2-  O119  1  0.80343838  0.25557845  0.13473520  1.0
  O2-  O120  1  0.04250000  0.74566667  0.54750000  1.0
  O2-  O121  1  0.04250000  0.41233333  0.54750000  1.0
  O2-  O122  1  0.04250000  0.07900000  0.54750000  1.0
  O2-  O123  1  0.04250000  0.74566667  0.04750000  1.0
  O2-  O124  1  0.04250000  0.41233333  0.04750000  1.0
  O2-  O125  1  0.04250000  0.07900000  0.04750000  1.0
  O2-  O126  1  0.54250000  0.74566667  0.54750000  1.0
  O2-  O127  1  0.54204616  0.41723828  0.54505656  1.0
  O2-  O128  1  0.54255555  0.07454959  0.54865048  1.0
  O2-  O129  1  0.54250000  0.74566667  0.04750000  1.0
  O2-  O130  1  0.54284299  0.41409924  0.04935666  1.0
  O2-  O131  1  0.54250000  0.07900000  0.04750000  1.0
  O2-  O132  1  0.45750000  0.92100000  0.45250000  1.0
  O2-  O133  1  0.45750000  0.58766667  0.45250000  1.0
  O2-  O134  1  0.45750000  0.25433333  0.45250000  1.0
  O2-  O135  1  0.45750000  0.92100000  0.95250000  1.0
  O2-  O136  1  0.45750000  0.58766667  0.95250000  1.0
  O2-  O137  1  0.45750000  0.25433333  0.95250000  1.0
  O2-  O138  1  0.95750000  0.92100000  0.45250000  1.0
  O2-  O139  1  0.95750000  0.58766667  0.45250000  1.0
  O2-  O140  1  0.95750000  0.25433333  0.45250000  1.0
  O2-  O141  1  0.95750000  0.92100000  0.95250000  1.0
  O2-  O142  1  0.95550171  0.58674102  0.95425342  1.0
  O2-  O143  1  0.95750000  0.25433333  0.95250000  1.0
  O2-  O144  1  0.11410126  0.91679697  0.30130110  1.0
  O2-  O145  1  0.11323428  0.58725570  0.29951373  1.0
  O2-  O146  1  0.11432549  0.25303719  0.29799763  1.0
  O2-  O147  1  0.11500000  0.91700000  0.79650000  1.0
  O2-  O148  1  0.11500000  0.58366667  0.79650000  1.0
  O2-  O149  1  0.11500000  0.25033333  0.79650000  1.0
  O2-  O150  1  0.61500000  0.91700000  0.29650000  1.0
  O2-  O151  1  0.61500000  0.58366667  0.29650000  1.0
  O2-  O152  1  0.61500000  0.25033333  0.29650000  1.0
  O2-  O153  1  0.61500000  0.91700000  0.79650000  1.0
  O2-  O154  1  0.61500000  0.58366667  0.79650000  1.0
  O2-  O155  1  0.61500000  0.25033333  0.79650000  1.0
  O2-  O156  1  0.38500000  0.74966667  0.70350000  1.0
  O2-  O157  1  0.38500000  0.41633333  0.70350000  1.0
  O2-  O158  1  0.38500000  0.08300000  0.70350000  1.0
  O2-  O159  1  0.38500000  0.74966667  0.20350000  1.0
  O2-  O160  1  0.38500000  0.41633333  0.20350000  1.0
  O2-  O161  1  0.38500000  0.08300000  0.20350000  1.0
  O2-  O162  1  0.88500000  0.74966667  0.70350000  1.0
  O2-  O163  1  0.88771278  0.41807704  0.69991965  1.0
  O2-  O164  1  0.88500000  0.08300000  0.70350000  1.0
  O2-  O165  1  0.88500000  0.74966667  0.20350000  1.0
  O2-  O166  1  0.88609658  0.41305772  0.20079960  1.0
  O2-  O167  1  0.88500000  0.08300000  0.20350000  1.0
