# generated using pymatgen
data_Li7BiO6
_symmetry_space_group_name_H-M   'P 1'
_cell_length_a   10.97725814
_cell_length_b   10.84886402
_cell_length_c   17.89855009
_cell_angle_alpha   116.08539134
_cell_angle_beta   116.72560913
_cell_angle_gamma   60.58000112
_symmetry_Int_Tables_number   1
_chemical_formula_structural   Li7BiO6
_chemical_formula_sum   'Li84 Bi12 O72'
_cell_volume   1591.38872560
_cell_formula_units_Z   12
loop_
 _symmetry_equiv_pos_site_id
 _symmetry_equiv_pos_as_xyz
  1  'x, y, z'
loop_
 _atom_type_symbol
 _atom_type_oxidation_number
  Li+  1.0
  Bi5+  5.0
  O2-  -2.0
loop_
 _atom_site_type_symbol
 _atom_site_label
 _atom_site_symmetry_multiplicity
 _atom_site_fract_x
 _atom_site_fract_y
 _atom_site_fract_z
 _atom_site_occupancy
  Li+  Li0  1  0.60650000  0.63166667  0.21066667  1.0
  Li+  Li1  1  0.60650000  0.63166667  0.54400000  1.0
  Li+  Li2  1  0.60650000  0.63166667  0.87733333  1.0
  Li+  Li3  1  0.10650000  0.63166667  0.21066667  1.0
  Li+  Li4  1  0.10650000  0.63166667  0.54400000  1.0
  Li+  Li5  1  0.10650000  0.63166667  0.87733333  1.0
  Li+  Li6  1  0.60650000  0.13166667  0.21066667  1.0
  Li+  Li7  1  0.60650000  0.13166667  0.54400000  1.0
  Li+  Li8  1  0.60650000  0.13166667  0.87733333  1.0
  Li+  Li9  1  0.10650000  0.13166667  0.21066667  1.0
  Li+  Li10  1  0.10650000  0.13166667  0.54400000  1.0
  Li+  Li11  1  0.10650000  0.13166667  0.87733333  1.0
  Li+  Li12  1  0.89350000  0.20166667  0.12266667  1.0
  Li+  Li13  1  0.89350000  0.20166667  0.45600000  1.0
  Li+  Li14  1  0.89350000  0.20166667  0.78933333  1.0
  Li+  Li15  1  0.39350000  0.20166667  0.12266667  1.0
  Li+  Li16  1  0.39350000  0.20166667  0.45600000  1.0
  Li+  Li17  1  0.39350000  0.20166667  0.78933333  1.0
  Li+  Li18  1  0.89350000  0.70166667  0.12266667  1.0
  Li+  Li19  1  0.89350000  0.70166667  0.45600000  1.0
  Li+  Li20  1  0.89350000  0.70166667  0.78933333  1.0
  Li+  Li21  1  0.39350000  0.70166667  0.12266667  1.0
  Li+  Li22  1  0.39350000  0.70166667  0.45600000  1.0
  Li+  Li23  1  0.39350000  0.70166667  0.78933333  1.0
  Li+  Li24  1  0.22250000  0.57166667  0.12600000  1.0
  Li+  Li25  1  0.22250000  0.57166667  0.45933333  1.0
  Li+  Li26  1  0.22250000  0.57166667  0.79266667  1.0
  Li+  Li27  1  0.72250000  0.07166667  0.12600000  1.0
  Li+  Li28  1  0.72250000  0.07166667  0.45933333  1.0
  Li+  Li29  1  0.72250000  0.07166667  0.79266667  1.0
  Li+  Li30  1  0.22250000  0.07166667  0.12600000  1.0
  Li+  Li31  1  0.22250000  0.07166667  0.45933333  1.0
  Li+  Li32  1  0.22250000  0.07166667  0.79266667  1.0
  Li+  Li33  1  0.77750000  0.26166667  0.20733333  1.0
  Li+  Li34  1  0.77750000  0.26166667  0.54066667  1.0
  Li+  Li35  1  0.77750000  0.26166667  0.87400000  1.0
  Li+  Li36  1  0.27750000  0.26166667  0.20733333  1.0
  Li+  Li37  1  0.27750000  0.26166667  0.54066667  1.0
  Li+  Li38  1  0.27750000  0.26166667  0.87400000  1.0
  Li+  Li39  1  0.77750000  0.76166667  0.20733333  1.0
  Li+  Li40  1  0.77750000  0.76166667  0.54066667  1.0
  Li+  Li41  1  0.77750000  0.76166667  0.87400000  1.0
  Li+  Li42  1  0.27750000  0.76166667  0.20733333  1.0
  Li+  Li43  1  0.27750000  0.76166667  0.54066667  1.0
  Li+  Li44  1  0.27750000  0.76166667  0.87400000  1.0
  Li+  Li45  1  0.57950000  0.39866667  0.12166667  1.0
  Li+  Li46  1  0.57950000  0.39866667  0.45500000  1.0
  Li+  Li47  1  0.57950000  0.39866667  0.78833333  1.0
  Li+  Li48  1  0.07950000  0.39866667  0.12166667  1.0
  Li+  Li49  1  0.07950000  0.39866667  0.45500000  1.0
  Li+  Li50  1  0.07950000  0.39866667  0.78833333  1.0
  Li+  Li51  1  0.57950000  0.89866667  0.12166667  1.0
  Li+  Li52  1  0.57950000  0.89866667  0.45500000  1.0
  Li+  Li53  1  0.57950000  0.89866667  0.78833333  1.0
  Li+  Li54  1  0.07950000  0.89866667  0.12166667  1.0
  Li+  Li55  1  0.07950000  0.89866667  0.45500000  1.0
  Li+  Li56  1  0.07950000  0.89866667  0.78833333  1.0
  Li+  Li57  1  0.92050000  0.43466667  0.21166667  1.0
  Li+  Li58  1  0.92050000  0.43466667  0.54500000  1.0
  Li+  Li59  1  0.92050000  0.43466667  0.87833333  1.0
  Li+  Li60  1  0.42050000  0.43466667  0.21166667  1.0
  Li+  Li61  1  0.42050000  0.43466667  0.54500000  1.0
  Li+  Li62  1  0.42050000  0.43466667  0.87833333  1.0
  Li+  Li63  1  0.83500000  0.48716667  0.32266667  1.0
  Li+  Li64  1  0.83500000  0.48716667  0.65600000  1.0
  Li+  Li65  1  0.83500000  0.48716667  0.98933333  1.0
  Li+  Li66  1  0.33500000  0.48716667  0.32266667  1.0
  Li+  Li67  1  0.33500000  0.48716667  0.65600000  1.0
  Li+  Li68  1  0.33500000  0.48716667  0.98933333  1.0
  Li+  Li69  1  0.83500000  0.98716667  0.32266667  1.0
  Li+  Li70  1  0.83500000  0.98716667  0.65600000  1.0
  Li+  Li71  1  0.83500000  0.98716667  0.98933333  1.0
  Li+  Li72  1  0.33500000  0.98716667  0.32266667  1.0
  Li+  Li73  1  0.33500000  0.98716667  0.65600000  1.0
  Li+  Li74  1  0.33500000  0.98716667  0.98933333  1.0
  Li+  Li75  1  0.66500000  0.34616667  0.01066667  1.0
  Li+  Li76  1  0.66500000  0.34616667  0.34400000  1.0
  Li+  Li77  1  0.66500000  0.34616667  0.67733333  1.0
  Li+  Li78  1  0.66500000  0.84616667  0.01066667  1.0
  Li+  Li79  1  0.66500000  0.84616667  0.34400000  1.0
  Li+  Li80  1  0.66500000  0.84616667  0.67733333  1.0
  Li+  Li81  1  0.16500000  0.84616667  0.01066667  1.0
  Li+  Li82  1  0.16500000  0.84616667  0.34400000  1.0
  Li+  Li83  1  0.16500000  0.84616667  0.67733333  1.0
  Bi5+  Bi84  1  0.00000000  0.66666667  0.00000000  1.0
  Bi5+  Bi85  1  0.00000000  0.66666667  0.33333333  1.0
  Bi5+  Bi86  1  0.00000000  0.66666667  0.66666667  1.0
  Bi5+  Bi87  1  0.50000000  0.66666667  0.00000000  1.0
  Bi5+  Bi88  1  0.50000000  0.66666667  0.33333333  1.0
  Bi5+  Bi89  1  0.50000000  0.66666667  0.66666667  1.0
  Bi5+  Bi90  1  0.00000000  0.16666667  0.00000000  1.0
  Bi5+  Bi91  1  0.00000000  0.16666667  0.33333333  1.0
  Bi5+  Bi92  1  0.00000000  0.16666667  0.66666667  1.0
  Bi5+  Bi93  1  0.50000000  0.16666667  0.00000000  1.0
  Bi5+  Bi94  1  0.50000000  0.16666667  0.33333333  1.0
  Bi5+  Bi95  1  0.50000000  0.16666667  0.66666667  1.0
  O2-  O96  1  0.61900000  0.47016667  0.25200000  1.0
  O2-  O97  1  0.61900000  0.47016667  0.58533333  1.0
  O2-  O98  1  0.61900000  0.47016667  0.91866667  1.0
  O2-  O99  1  0.11900000  0.47016667  0.25200000  1.0
  O2-  O100  1  0.11900000  0.47016667  0.58533333  1.0
  O2-  O101  1  0.11900000  0.47016667  0.91866667  1.0
  O2-  O102  1  0.61900000  0.97016667  0.25200000  1.0
  O2-  O103  1  0.61900000  0.97016667  0.58533333  1.0
  O2-  O104  1  0.61900000  0.97016667  0.91866667  1.0
  O2-  O105  1  0.11900000  0.97016667  0.25200000  1.0
  O2-  O106  1  0.11900000  0.97016667  0.58533333  1.0
  O2-  O107  1  0.11900000  0.97016667  0.91866667  1.0
  O2-  O108  1  0.88100000  0.36316667  0.08133333  1.0
  O2-  O109  1  0.88100000  0.36316667  0.41466667  1.0
  O2-  O110  1  0.88100000  0.36316667  0.74800000  1.0
  O2-  O111  1  0.38100000  0.36316667  0.08133333  1.0
  O2-  O112  1  0.38100000  0.36316667  0.41466667  1.0
  O2-  O113  1  0.38100000  0.36316667  0.74800000  1.0
  O2-  O114  1  0.88100000  0.86316667  0.08133333  1.0
  O2-  O115  1  0.88100000  0.86316667  0.41466667  1.0
  O2-  O116  1  0.88100000  0.86316667  0.74800000  1.0
  O2-  O117  1  0.38100000  0.86316667  0.08133333  1.0
  O2-  O118  1  0.38100000  0.86316667  0.41466667  1.0
  O2-  O119  1  0.38100000  0.86316667  0.74800000  1.0
  O2-  O120  1  0.79750000  0.62416667  0.25433333  1.0
  O2-  O121  1  0.79750000  0.62416667  0.58766667  1.0
  O2-  O122  1  0.79750000  0.62416667  0.92100000  1.0
  O2-  O123  1  0.29750000  0.62416667  0.25433333  1.0
  O2-  O124  1  0.29750000  0.62416667  0.58766667  1.0
  O2-  O125  1  0.29750000  0.62416667  0.92100000  1.0
  O2-  O126  1  0.79750000  0.12416667  0.25433333  1.0
  O2-  O127  1  0.79750000  0.12416667  0.58766667  1.0
  O2-  O128  1  0.79750000  0.12416667  0.92100000  1.0
  O2-  O129  1  0.29750000  0.12416667  0.25433333  1.0
  O2-  O130  1  0.29750000  0.12416667  0.58766667  1.0
  O2-  O131  1  0.29750000  0.12416667  0.92100000  1.0
  O2-  O132  1  0.70250000  0.20916667  0.07900000  1.0
  O2-  O133  1  0.70250000  0.20916667  0.41233333  1.0
  O2-  O134  1  0.70250000  0.20916667  0.74566667  1.0
  O2-  O135  1  0.20250000  0.20916667  0.07900000  1.0
  O2-  O136  1  0.20250000  0.20916667  0.41233333  1.0
  O2-  O137  1  0.20250000  0.20916667  0.74566667  1.0
  O2-  O138  1  0.70250000  0.70916667  0.07900000  1.0
  O2-  O139  1  0.70250000  0.70916667  0.41233333  1.0
  O2-  O140  1  0.70250000  0.70916667  0.74566667  1.0
  O2-  O141  1  0.20250000  0.70916667  0.07900000  1.0
  O2-  O142  1  0.20250000  0.70916667  0.41233333  1.0
  O2-  O143  1  0.20250000  0.70916667  0.74566667  1.0
  O2-  O144  1  0.54650000  0.55166667  0.08300000  1.0
  O2-  O145  1  0.54650000  0.55166667  0.41633333  1.0
  O2-  O146  1  0.54650000  0.55166667  0.74966667  1.0
  O2-  O147  1  0.04650000  0.55166667  0.08300000  1.0
  O2-  O148  1  0.04650000  0.55166667  0.41633333  1.0
  O2-  O149  1  0.04650000  0.55166667  0.74966667  1.0
  O2-  O150  1  0.54650000  0.05166667  0.08300000  1.0
  O2-  O151  1  0.54650000  0.05166667  0.41633333  1.0
  O2-  O152  1  0.54650000  0.05166667  0.74966667  1.0
  O2-  O153  1  0.04650000  0.05166667  0.08300000  1.0
  O2-  O154  1  0.04650000  0.05166667  0.41633333  1.0
  O2-  O155  1  0.04650000  0.05166667  0.74966667  1.0
  O2-  O156  1  0.95350000  0.28166667  0.25033333  1.0
  O2-  O157  1  0.95350000  0.28166667  0.58366667  1.0
  O2-  O158  1  0.95350000  0.28166667  0.91700000  1.0
  O2-  O159  1  0.45350000  0.28166667  0.25033333  1.0
  O2-  O160  1  0.45350000  0.28166667  0.58366667  1.0
  O2-  O161  1  0.45350000  0.28166667  0.91700000  1.0
  O2-  O162  1  0.95350000  0.78166667  0.25033333  1.0
  O2-  O163  1  0.95350000  0.78166667  0.58366667  1.0
  O2-  O164  1  0.95350000  0.78166667  0.91700000  1.0
  O2-  O165  1  0.45350000  0.78166667  0.25033333  1.0
  O2-  O166  1  0.45350000  0.78166667  0.58366667  1.0
  O2-  O167  1  0.45350000  0.78166667  0.91700000  1.0
