# generated using pymatgen
data_Li7BiO6
_symmetry_space_group_name_H-M   'P 1'
_cell_length_a   10.88537379
_cell_length_b   11.01420000
_cell_length_c   17.95878423
_cell_angle_alpha   63.27439087
_cell_angle_beta   63.91460866
_cell_angle_gamma   60.58000112
_symmetry_Int_Tables_number   1
_chemical_formula_structural   Li7BiO6
_chemical_formula_sum   'Li84 Bi12 O72'
_cell_volume   1607.50939624
_cell_formula_units_Z   12
loop_
 _symmetry_equiv_pos_site_id
 _symmetry_equiv_pos_as_xyz
  1  'x, y, z'
loop_
 _atom_type_symbol
 _atom_type_oxidation_number
  Li+  1.0
  Bi5+  5.0
  O2-  -2.0
loop_
 _atom_site_type_symbol
 _atom_site_label
 _atom_site_symmetry_multiplicity
 _atom_site_fract_x
 _atom_site_fract_y
 _atom_site_fract_z
 _atom_site_occupancy
  Li+  Li0  1  0.03500000  0.39350000  0.21066667  1.0
  Li+  Li0  1  0.03500000  0.39350000  0.54400000  1.0
  Li+  Li0  1  0.03500000  0.39350000  0.87733333  1.0
  Li+  Li1  1  0.03500000  0.89350000  0.21066667  1.0
  Li+  Li1  1  0.03500000  0.89350000  0.54400000  1.0
  Li+  Li1  1  0.03500000  0.89350000  0.87733333  1.0
  Li+  Li2  1  0.53500000  0.39350000  0.21066667  1.0
  Li+  Li2  1  0.53500000  0.39350000  0.54400000  1.0
  Li+  Li2  1  0.53500000  0.39350000  0.87733333  1.0
  Li+  Li3  1  0.53500000  0.89350000  0.21066667  1.0
  Li+  Li3  1  0.53500000  0.89350000  0.54400000  1.0
  Li+  Li3  1  0.53500000  0.89350000  0.87733333  1.0
  Li+  Li4  1  0.46500000  0.10650000  0.12266667  1.0
  Li+  Li4  1  0.46500000  0.10650000  0.45600000  1.0
  Li+  Li4  1  0.46500000  0.10650000  0.78933333  1.0
  Li+  Li5  1  0.46500000  0.60650000  0.12266667  1.0
  Li+  Li5  1  0.46500000  0.60650000  0.45600000  1.0
  Li+  Li5  1  0.46500000  0.60650000  0.78933333  1.0
  Li+  Li6  1  0.96500000  0.10650000  0.12266667  1.0
  Li+  Li6  1  0.96500000  0.10650000  0.45600000  1.0
  Li+  Li6  1  0.96500000  0.10650000  0.78933333  1.0
  Li+  Li7  1  0.96500000  0.60650000  0.12266667  1.0
  Li+  Li7  1  0.96500000  0.60650000  0.45600000  1.0
  Li+  Li7  1  0.96500000  0.60650000  0.78933333  1.0
  Li+  Li8  1  0.09500000  0.77750000  0.12600000  1.0
  Li+  Li8  1  0.09500000  0.77750000  0.45933333  1.0
  Li+  Li8  1  0.09500000  0.77750000  0.79266667  1.0
  Li+  Li9  1  0.59500000  0.27750000  0.12600000  1.0
  Li+  Li9  1  0.59500000  0.27750000  0.45933333  1.0
  Li+  Li9  1  0.59500000  0.27750000  0.79266667  1.0
  Li+  Li10  1  0.59500000  0.77750000  0.12600000  1.0
  Li+  Li10  1  0.59500000  0.77750000  0.45933333  1.0
  Li+  Li10  1  0.59500000  0.77750000  0.79266667  1.0
  Li+  Li11  1  0.40500000  0.22250000  0.20733333  1.0
  Li+  Li11  1  0.40500000  0.22250000  0.54066667  1.0
  Li+  Li11  1  0.40500000  0.22250000  0.87400000  1.0
  Li+  Li12  1  0.40500000  0.72250000  0.20733333  1.0
  Li+  Li12  1  0.40500000  0.72250000  0.54066667  1.0
  Li+  Li12  1  0.40500000  0.72250000  0.87400000  1.0
  Li+  Li13  1  0.90500000  0.22250000  0.20733333  1.0
  Li+  Li13  1  0.90500000  0.22250000  0.54066667  1.0
  Li+  Li13  1  0.90500000  0.22250000  0.87400000  1.0
  Li+  Li14  1  0.90500000  0.72250000  0.20733333  1.0
  Li+  Li14  1  0.90500000  0.72250000  0.54066667  1.0
  Li+  Li14  1  0.90500000  0.72250000  0.87400000  1.0
  Li+  Li15  1  0.26800000  0.42050000  0.12166667  1.0
  Li+  Li15  1  0.26800000  0.42050000  0.45500000  1.0
  Li+  Li15  1  0.26800000  0.42050000  0.78833333  1.0
  Li+  Li16  1  0.26800000  0.92050000  0.12166667  1.0
  Li+  Li16  1  0.26800000  0.92050000  0.45500000  1.0
  Li+  Li16  1  0.26800000  0.92050000  0.78833333  1.0
  Li+  Li17  1  0.76800000  0.42050000  0.12166667  1.0
  Li+  Li17  1  0.76800000  0.42050000  0.45500000  1.0
  Li+  Li17  1  0.76800000  0.42050000  0.78833333  1.0
  Li+  Li18  1  0.76800000  0.92050000  0.12166667  1.0
  Li+  Li18  1  0.76800000  0.92050000  0.45500000  1.0
  Li+  Li18  1  0.76800000  0.92050000  0.78833333  1.0
  Li+  Li19  1  0.23200000  0.07950000  0.21166667  1.0
  Li+  Li19  1  0.23200000  0.07950000  0.54500000  1.0
  Li+  Li19  1  0.23200000  0.07950000  0.87833333  1.0
  Li+  Li20  1  0.23200000  0.57950000  0.21166667  1.0
  Li+  Li20  1  0.23200000  0.57950000  0.54500000  1.0
  Li+  Li20  1  0.23200000  0.57950000  0.87833333  1.0
  Li+  Li21  1  0.17950000  0.16500000  0.32266667  1.0
  Li+  Li21  1  0.17950000  0.16500000  0.65600000  1.0
  Li+  Li21  1  0.17950000  0.16500000  0.98933333  1.0
  Li+  Li22  1  0.17950000  0.66500000  0.32266667  1.0
  Li+  Li22  1  0.17950000  0.66500000  0.65600000  1.0
  Li+  Li22  1  0.17950000  0.66500000  0.98933333  1.0
  Li+  Li23  1  0.67950000  0.16500000  0.32266667  1.0
  Li+  Li23  1  0.67950000  0.16500000  0.65600000  1.0
  Li+  Li23  1  0.67950000  0.16500000  0.98933333  1.0
  Li+  Li24  1  0.67950000  0.66500000  0.32266667  1.0
  Li+  Li24  1  0.67950000  0.66500000  0.65600000  1.0
  Li+  Li24  1  0.67950000  0.66500000  0.98933333  1.0
  Li+  Li25  1  0.32050000  0.33500000  0.01066667  1.0
  Li+  Li25  1  0.32050000  0.33500000  0.34400000  1.0
  Li+  Li25  1  0.32050000  0.33500000  0.67733333  1.0
  Li+  Li26  1  0.82050000  0.33500000  0.01066667  1.0
  Li+  Li26  1  0.82050000  0.33500000  0.34400000  1.0
  Li+  Li26  1  0.82050000  0.33500000  0.67733333  1.0
  Li+  Li27  1  0.82050000  0.83500000  0.01066667  1.0
  Li+  Li27  1  0.82050000  0.83500000  0.34400000  1.0
  Li+  Li27  1  0.82050000  0.83500000  0.67733333  1.0
  Bi5+  Bi1  1  0.00000000  0.00000000  0.00000000  1.0
  Bi5+  Bi1  1  0.00000000  0.00000000  0.33333333  1.0
  Bi5+  Bi1  1  0.00000000  0.00000000  0.66666667  1.0
  Bi5+  Bi1  1  0.00000000  0.50000000  0.00000000  1.0
  Bi5+  Bi1  1  0.00000000  0.50000000  0.33333333  1.0
  Bi5+  Bi1  1  0.00000000  0.50000000  0.66666667  1.0
  Bi5+  Bi1  1  0.50000000  0.00000000  0.00000000  1.0
  Bi5+  Bi1  1  0.50000000  0.00000000  0.33333333  1.0
  Bi5+  Bi1  1  0.50000000  0.00000000  0.66666667  1.0
  Bi5+  Bi1  1  0.50000000  0.50000000  0.00000000  1.0
  Bi5+  Bi1  1  0.50000000  0.50000000  0.33333333  1.0
  Bi5+  Bi1  1  0.50000000  0.50000000  0.66666667  1.0
  O2-  O1  1  0.19650000  0.38100000  0.25200000  1.0
  O2-  O1  1  0.19650000  0.38100000  0.58533333  1.0
  O2-  O1  1  0.19650000  0.38100000  0.91866667  1.0
  O2-  O1  1  0.19650000  0.88100000  0.25200000  1.0
  O2-  O1  1  0.19650000  0.88100000  0.58533333  1.0
  O2-  O1  1  0.19650000  0.88100000  0.91866667  1.0
  O2-  O1  1  0.69650000  0.38100000  0.25200000  1.0
  O2-  O1  1  0.69650000  0.38100000  0.58533333  1.0
  O2-  O1  1  0.69650000  0.38100000  0.91866667  1.0
  O2-  O1  1  0.69650000  0.88100000  0.25200000  1.0
  O2-  O1  1  0.69650000  0.88100000  0.58533333  1.0
  O2-  O1  1  0.69650000  0.88100000  0.91866667  1.0
  O2-  O1  1  0.30350000  0.11900000  0.08133333  1.0
  O2-  O1  1  0.30350000  0.11900000  0.41466667  1.0
  O2-  O1  1  0.30350000  0.11900000  0.74800000  1.0
  O2-  O1  1  0.30350000  0.61900000  0.08133333  1.0
  O2-  O1  1  0.30350000  0.61900000  0.41466667  1.0
  O2-  O1  1  0.30350000  0.61900000  0.74800000  1.0
  O2-  O1  1  0.80350000  0.11900000  0.08133333  1.0
  O2-  O1  1  0.80350000  0.11900000  0.41466667  1.0
  O2-  O1  1  0.80350000  0.11900000  0.74800000  1.0
  O2-  O1  1  0.80350000  0.61900000  0.08133333  1.0
  O2-  O1  1  0.80350000  0.61900000  0.41466667  1.0
  O2-  O1  1  0.80350000  0.61900000  0.74800000  1.0
  O2-  O2  1  0.04250000  0.20250000  0.25433333  1.0
  O2-  O2  1  0.04250000  0.20250000  0.58766667  1.0
  O2-  O2  1  0.04250000  0.20250000  0.92100000  1.0
  O2-  O2  1  0.04250000  0.70250000  0.25433333  1.0
  O2-  O2  1  0.04250000  0.70250000  0.58766667  1.0
  O2-  O2  1  0.04250000  0.70250000  0.92100000  1.0
  O2-  O2  1  0.54250000  0.20250000  0.25433333  1.0
  O2-  O2  1  0.54250000  0.20250000  0.58766667  1.0
  O2-  O2  1  0.54250000  0.20250000  0.92100000  1.0
  O2-  O2  1  0.54250000  0.70250000  0.25433333  1.0
  O2-  O2  1  0.54250000  0.70250000  0.58766667  1.0
  O2-  O2  1  0.54250000  0.70250000  0.92100000  1.0
  O2-  O2  1  0.45750000  0.29750000  0.07900000  1.0
  O2-  O2  1  0.45750000  0.29750000  0.41233333  1.0
  O2-  O2  1  0.45750000  0.29750000  0.74566667  1.0
  O2-  O2  1  0.45750000  0.79750000  0.07900000  1.0
  O2-  O2  1  0.45750000  0.79750000  0.41233333  1.0
  O2-  O2  1  0.45750000  0.79750000  0.74566667  1.0
  O2-  O2  1  0.95750000  0.29750000  0.07900000  1.0
  O2-  O2  1  0.95750000  0.29750000  0.41233333  1.0
  O2-  O2  1  0.95750000  0.29750000  0.74566667  1.0
  O2-  O2  1  0.95750000  0.79750000  0.07900000  1.0
  O2-  O2  1  0.95750000  0.79750000  0.41233333  1.0
  O2-  O2  1  0.95750000  0.79750000  0.74566667  1.0
  O2-  O3  1  0.11500000  0.45350000  0.08300000  1.0
  O2-  O3  1  0.11500000  0.45350000  0.41633333  1.0
  O2-  O3  1  0.11500000  0.45350000  0.74966667  1.0
  O2-  O3  1  0.11500000  0.95350000  0.08300000  1.0
  O2-  O3  1  0.11500000  0.95350000  0.41633333  1.0
  O2-  O3  1  0.11500000  0.95350000  0.74966667  1.0
  O2-  O3  1  0.61500000  0.45350000  0.08300000  1.0
  O2-  O3  1  0.61500000  0.45350000  0.41633333  1.0
  O2-  O3  1  0.61500000  0.45350000  0.74966667  1.0
  O2-  O3  1  0.61500000  0.95350000  0.08300000  1.0
  O2-  O3  1  0.61500000  0.95350000  0.41633333  1.0
  O2-  O3  1  0.61500000  0.95350000  0.74966667  1.0
  O2-  O3  1  0.38500000  0.04650000  0.25033333  1.0
  O2-  O3  1  0.38500000  0.04650000  0.58366667  1.0
  O2-  O3  1  0.38500000  0.04650000  0.91700000  1.0
  O2-  O3  1  0.38500000  0.54650000  0.25033333  1.0
  O2-  O3  1  0.38500000  0.54650000  0.58366667  1.0
  O2-  O3  1  0.38500000  0.54650000  0.91700000  1.0
  O2-  O3  1  0.88500000  0.04650000  0.25033333  1.0
  O2-  O3  1  0.88500000  0.04650000  0.58366667  1.0
  O2-  O3  1  0.88500000  0.04650000  0.91700000  1.0
  O2-  O3  1  0.88500000  0.54650000  0.25033333  1.0
  O2-  O3  1  0.88500000  0.54650000  0.58366667  1.0
  O2-  O3  1  0.88500000  0.54650000  0.91700000  1.0
