# generated using pymatgen
data_Li4SnSeS3
_symmetry_space_group_name_H-M   'P 1'
_cell_length_a   12.92224000
_cell_length_b   16.14278000
_cell_length_c   14.09340000
_cell_angle_alpha   90.00000000
_cell_angle_beta   90.00000000
_cell_angle_gamma   90.00000000
_symmetry_Int_Tables_number   1
_chemical_formula_structural   Li4SnSeS3
_chemical_formula_sum   'Li64 Sn16 Se16 S48'
_cell_volume   2939.89560593
_cell_formula_units_Z   16
loop_
 _symmetry_equiv_pos_site_id
 _symmetry_equiv_pos_as_xyz
  1  'x, y, z'
loop_
 _atom_type_symbol
 _atom_type_oxidation_number
  Li+  1.0
  Sn4+  4.0
  Se2-  -2.0
  S2-  -2.0
loop_
 _atom_site_type_symbol
 _atom_site_label
 _atom_site_symmetry_multiplicity
 _atom_site_fract_x
 _atom_site_fract_y
 _atom_site_fract_z
 _atom_site_occupancy
  Li+  Li2  1  0.33025000  0.00250000  0.83850000  1.0
  Li+  Li2  1  0.33025000  0.50250000  0.83850000  1.0
  Li+  Li2  1  0.83025000  0.00250000  0.83850000  1.0
  Li+  Li2  1  0.83025000  0.50250000  0.83850000  1.0
  Li+  Li2  1  0.16975000  0.25250000  0.16150000  1.0
  Li+  Li2  1  0.16975000  0.75250000  0.16150000  1.0
  Li+  Li2  1  0.66975000  0.25250000  0.16150000  1.0
  Li+  Li2  1  0.66975000  0.75250000  0.16150000  1.0
  Li+  Li2  1  0.08025000  0.49750000  0.66150000  1.0
  Li+  Li2  1  0.08025000  0.99750000  0.66150000  1.0
  Li+  Li2  1  0.58025000  0.49750000  0.66150000  1.0
  Li+  Li2  1  0.58025000  0.99750000  0.66150000  1.0
  Li+  Li2  1  0.08025000  0.25250000  0.66150000  1.0
  Li+  Li2  1  0.08025000  0.75250000  0.66150000  1.0
  Li+  Li2  1  0.58025000  0.25250000  0.66150000  1.0
  Li+  Li2  1  0.58025000  0.75250000  0.66150000  1.0
  Li+  Li2  1  0.33025000  0.24750000  0.83850000  1.0
  Li+  Li2  1  0.33025000  0.74750000  0.83850000  1.0
  Li+  Li2  1  0.83025000  0.24750000  0.83850000  1.0
  Li+  Li2  1  0.83025000  0.74750000  0.83850000  1.0
  Li+  Li2  1  0.16975000  0.49750000  0.16150000  1.0
  Li+  Li2  1  0.16975000  0.99750000  0.16150000  1.0
  Li+  Li2  1  0.66975000  0.49750000  0.16150000  1.0
  Li+  Li2  1  0.66975000  0.99750000  0.16150000  1.0
  Li+  Li2  1  0.41975000  0.24750000  0.33850000  1.0
  Li+  Li2  1  0.41975000  0.74750000  0.33850000  1.0
  Li+  Li2  1  0.91975000  0.24750000  0.33850000  1.0
  Li+  Li2  1  0.91975000  0.74750000  0.33850000  1.0
  Li+  Li2  1  0.41975000  0.00250000  0.33850000  1.0
  Li+  Li2  1  0.41975000  0.50250000  0.33850000  1.0
  Li+  Li2  1  0.91975000  0.00250000  0.33850000  1.0
  Li+  Li2  1  0.91975000  0.50250000  0.33850000  1.0
  Li+  Li16  1  0.76100000  0.01600000  0.03300000  1.0
  Li+  Li16  1  0.76100000  0.51600000  0.03300000  1.0
  Li+  Li17  1  0.01100000  0.48400000  0.46700000  1.0
  Li+  Li17  1  0.01100000  0.98400000  0.46700000  1.0
  Li+  Li18  1  0.76100000  0.23400000  0.03300000  1.0
  Li+  Li18  1  0.76100000  0.73400000  0.03300000  1.0
  Li+  Li19  1  0.98900000  0.23400000  0.53300000  1.0
  Li+  Li19  1  0.98900000  0.73400000  0.53300000  1.0
  Li+  Li20  1  0.18250000  0.37500000  0.40500000  1.0
  Li+  Li20  1  0.18250000  0.87500000  0.40500000  1.0
  Li+  Li21  1  0.68250000  0.37500000  0.40500000  1.0
  Li+  Li21  1  0.68250000  0.87500000  0.40500000  1.0
  Li+  Li22  1  0.93250000  0.12500000  0.09500000  1.0
  Li+  Li22  1  0.93250000  0.62500000  0.09500000  1.0
  Li+  Li23  1  0.01550000  0.37500000  0.74900000  1.0
  Li+  Li23  1  0.01550000  0.87500000  0.74900000  1.0
  Li+  Li24  1  0.51550000  0.37500000  0.74900000  1.0
  Li+  Li24  1  0.51550000  0.87500000  0.74900000  1.0
  Li+  Li25  1  0.26550000  0.12500000  0.75100000  1.0
  Li+  Li25  1  0.26550000  0.62500000  0.75100000  1.0
  Li+  Li26  1  0.76550000  0.12500000  0.75100000  1.0
  Li+  Li26  1  0.76550000  0.62500000  0.75100000  1.0
  Li+  Li27  1  0.42000000  0.12500000  0.56600000  1.0
  Li+  Li27  1  0.42000000  0.62500000  0.56600000  1.0
  Li+  Li28  1  0.58000000  0.37500000  0.43400000  1.0
  Li+  Li28  1  0.58000000  0.87500000  0.43400000  1.0
  Li+  Li29  1  0.17000000  0.37500000  0.93400000  1.0
  Li+  Li29  1  0.17000000  0.87500000  0.93400000  1.0
  Li+  Li30  1  0.67000000  0.37500000  0.93400000  1.0
  Li+  Li30  1  0.67000000  0.87500000  0.93400000  1.0
  Li+  Li31  1  0.33000000  0.12500000  0.06600000  1.0
  Li+  Li31  1  0.33000000  0.62500000  0.06600000  1.0
  Sn4+  Sn1  1  0.31850000  0.37500000  0.58730000  1.0
  Sn4+  Sn1  1  0.31850000  0.87500000  0.58730000  1.0
  Sn4+  Sn1  1  0.81850000  0.37500000  0.58730000  1.0
  Sn4+  Sn1  1  0.81850000  0.87500000  0.58730000  1.0
  Sn4+  Sn1  1  0.18150000  0.12500000  0.41270000  1.0
  Sn4+  Sn1  1  0.18150000  0.62500000  0.41270000  1.0
  Sn4+  Sn1  1  0.68150000  0.12500000  0.41270000  1.0
  Sn4+  Sn1  1  0.68150000  0.62500000  0.41270000  1.0
  Sn4+  Sn1  1  0.06850000  0.12500000  0.91270000  1.0
  Sn4+  Sn1  1  0.06850000  0.62500000  0.91270000  1.0
  Sn4+  Sn1  1  0.56850000  0.12500000  0.91270000  1.0
  Sn4+  Sn1  1  0.56850000  0.62500000  0.91270000  1.0
  Sn4+  Sn1  1  0.43150000  0.37500000  0.08730000  1.0
  Sn4+  Sn1  1  0.43150000  0.87500000  0.08730000  1.0
  Sn4+  Sn1  1  0.93150000  0.37500000  0.08730000  1.0
  Sn4+  Sn1  1  0.93150000  0.87500000  0.08730000  1.0
  Se2-  Se40  1  0.63420000  0.24830000  0.83210000  1.0
  Se2-  Se40  1  0.63420000  0.74830000  0.83210000  1.0
  Se2-  Se41  1  0.88420000  0.25170000  0.66790000  1.0
  Se2-  Se41  1  0.88420000  0.75170000  0.66790000  1.0
  Se2-  Se42  1  0.11580000  0.00170000  0.33210000  1.0
  Se2-  Se42  1  0.11580000  0.50170000  0.33210000  1.0
  Se2-  Se43  1  0.36580000  0.25170000  0.16790000  1.0
  Se2-  Se43  1  0.36580000  0.75170000  0.16790000  1.0
  Se2-  Se44  1  0.36580000  0.49830000  0.16790000  1.0
  Se2-  Se44  1  0.36580000  0.99830000  0.16790000  1.0
  Se2-  Se45  1  0.86880000  0.37500000  0.92670000  1.0
  Se2-  Se45  1  0.86880000  0.87500000  0.92670000  1.0
  Se2-  Se46  1  0.61880000  0.12500000  0.57330000  1.0
  Se2-  Se46  1  0.61880000  0.62500000  0.57330000  1.0
  Se2-  Se47  1  0.88120000  0.37500000  0.42670000  1.0
  Se2-  Se47  1  0.88120000  0.87500000  0.42670000  1.0
  S2-  S48  1  0.38420000  0.49830000  0.66790000  1.0
  S2-  S48  1  0.38420000  0.99830000  0.66790000  1.0
  S2-  S49  1  0.88420000  0.49830000  0.66790000  1.0
  S2-  S49  1  0.88420000  0.99830000  0.66790000  1.0
  S2-  S50  1  0.11580000  0.24830000  0.33210000  1.0
  S2-  S50  1  0.11580000  0.74830000  0.33210000  1.0
  S2-  S51  1  0.61580000  0.24830000  0.33210000  1.0
  S2-  S51  1  0.61580000  0.74830000  0.33210000  1.0
  S2-  S52  1  0.13420000  0.00170000  0.83210000  1.0
  S2-  S52  1  0.13420000  0.50170000  0.83210000  1.0
  S2-  S53  1  0.63420000  0.00170000  0.83210000  1.0
  S2-  S53  1  0.63420000  0.50170000  0.83210000  1.0
  S2-  S54  1  0.13420000  0.24830000  0.83210000  1.0
  S2-  S54  1  0.13420000  0.74830000  0.83210000  1.0
  S2-  S55  1  0.38420000  0.25170000  0.66790000  1.0
  S2-  S55  1  0.38420000  0.75170000  0.66790000  1.0
  S2-  S56  1  0.61580000  0.00170000  0.33210000  1.0
  S2-  S56  1  0.61580000  0.50170000  0.33210000  1.0
  S2-  S57  1  0.86580000  0.25170000  0.16790000  1.0
  S2-  S57  1  0.86580000  0.75170000  0.16790000  1.0
  S2-  S58  1  0.86580000  0.49830000  0.16790000  1.0
  S2-  S58  1  0.86580000  0.99830000  0.16790000  1.0
  S2-  S59  1  0.38305000  0.12500000  0.90950000  1.0
  S2-  S59  1  0.38305000  0.62500000  0.90950000  1.0
  S2-  S60  1  0.88305000  0.12500000  0.90950000  1.0
  S2-  S60  1  0.88305000  0.62500000  0.90950000  1.0
  S2-  S61  1  0.11695000  0.37500000  0.09050000  1.0
  S2-  S61  1  0.11695000  0.87500000  0.09050000  1.0
  S2-  S62  1  0.61695000  0.37500000  0.09050000  1.0
  S2-  S62  1  0.61695000  0.87500000  0.09050000  1.0
  S2-  S63  1  0.13305000  0.37500000  0.59050000  1.0
  S2-  S63  1  0.13305000  0.87500000  0.59050000  1.0
  S2-  S64  1  0.63305000  0.37500000  0.59050000  1.0
  S2-  S64  1  0.63305000  0.87500000  0.59050000  1.0
  S2-  S65  1  0.36695000  0.12500000  0.40950000  1.0
  S2-  S65  1  0.36695000  0.62500000  0.40950000  1.0
  S2-  S66  1  0.86695000  0.12500000  0.40950000  1.0
  S2-  S66  1  0.86695000  0.62500000  0.40950000  1.0
  S2-  S67  1  0.36880000  0.37500000  0.92670000  1.0
  S2-  S67  1  0.36880000  0.87500000  0.92670000  1.0
  S2-  S68  1  0.13120000  0.12500000  0.07330000  1.0
  S2-  S68  1  0.13120000  0.62500000  0.07330000  1.0
  S2-  S69  1  0.63120000  0.12500000  0.07330000  1.0
  S2-  S69  1  0.63120000  0.62500000  0.07330000  1.0
  S2-  S70  1  0.11880000  0.12500000  0.57330000  1.0
  S2-  S70  1  0.11880000  0.62500000  0.57330000  1.0
  S2-  S71  1  0.38120000  0.37500000  0.42670000  1.0
  S2-  S71  1  0.38120000  0.87500000  0.42670000  1.0
