# generated using pymatgen
data_Li2ZnGe3O8
_symmetry_space_group_name_H-M   'P 1'
_cell_length_a   8.19610000
_cell_length_b   16.39220000
_cell_length_c   8.19610000
_cell_angle_alpha   90.00000000
_cell_angle_beta   90.00000000
_cell_angle_gamma   90.00000000
_symmetry_Int_Tables_number   1
_chemical_formula_structural   Li2ZnGe3O8
_chemical_formula_sum   'Li16 Zn8 Ge24 O64'
_cell_volume   1101.16333221
_cell_formula_units_Z   8
loop_
 _symmetry_equiv_pos_site_id
 _symmetry_equiv_pos_as_xyz
  1  'x, y, z'
loop_
 _atom_type_symbol
 _atom_type_oxidation_number
  Li+  1.0
  Zn2+  2.0
  Ge4+  4.0
  O2-  -2.0
loop_
 _atom_site_type_symbol
 _atom_site_label
 _atom_site_symmetry_multiplicity
 _atom_site_fract_x
 _atom_site_fract_y
 _atom_site_fract_z
 _atom_site_occupancy
  Li+  Li0  1  0.87669478  0.93847326  0.37273540  1.0
  Li+  Li1  1  0.87500000  0.43750000  0.37500000  1.0
  Li+  Li2  1  0.12577519  0.81678126  0.87732621  1.0
  Li+  Li3  1  0.12500000  0.31250000  0.87500000  1.0
  Li+  Li4  1  0.37289384  0.56533359  0.62371864  1.0
  Li+  Li5  1  0.37500000  0.06250000  0.62500000  1.0
  Li+  Li6  1  0.62500000  0.68750000  0.12500000  1.0
  Li+  Li7  1  0.62500000  0.18750000  0.12500000  1.0
  Li+  Li8  1  0.25488000  0.62744000  0.99512000  1.0
  Li+  Li9  1  0.74512000  0.62256000  0.49512000  1.0
  Li+  Li10  1  0.75488000  0.87256000  0.00488000  1.0
  Li+  Li11  1  0.74993083  0.37238416  0.00915208  1.0
  Li+  Li12  1  0.24512000  0.37744000  0.50488000  1.0
  Li+  Li13  1  0.49512000  0.24756000  0.75488000  1.0
  Li+  Li14  1  0.50488000  0.00244000  0.25488000  1.0
  Li+  Li15  1  0.00488000  0.99756000  0.74512000  1.0
  Zn2+  Zn16  1  0.25488000  0.12744000  0.99512000  1.0
  Zn2+  Zn17  1  0.74512000  0.12256000  0.49512000  1.0
  Zn2+  Zn18  1  0.24512000  0.87744000  0.50488000  1.0
  Zn2+  Zn19  1  0.49512000  0.74756000  0.75488000  1.0
  Zn2+  Zn20  1  0.99512000  0.75244000  0.24512000  1.0
  Zn2+  Zn21  1  0.99512000  0.25244000  0.24512000  1.0
  Zn2+  Zn22  1  0.50488000  0.50244000  0.25488000  1.0
  Zn2+  Zn23  1  0.00488000  0.49756000  0.74512000  1.0
  Ge4+  Ge24  1  0.12651546  0.68804764  0.62288953  1.0
  Ge4+  Ge25  1  0.12536000  0.18750000  0.62536000  1.0
  Ge4+  Ge26  1  0.87464000  0.56250000  0.12536000  1.0
  Ge4+  Ge27  1  0.87464000  0.06250000  0.12536000  1.0
  Ge4+  Ge28  1  0.62464000  0.56268000  0.87500000  1.0
  Ge4+  Ge29  1  0.62464000  0.06268000  0.87500000  1.0
  Ge4+  Ge30  1  0.37536000  0.68732000  0.37500000  1.0
  Ge4+  Ge31  1  0.37536000  0.18732000  0.37500000  1.0
  Ge4+  Ge32  1  0.37500000  0.81232000  0.12464000  1.0
  Ge4+  Ge33  1  0.37500000  0.31232000  0.12464000  1.0
  Ge4+  Ge34  1  0.62500000  0.93768000  0.62464000  1.0
  Ge4+  Ge35  1  0.62500000  0.43768000  0.62464000  1.0
  Ge4+  Ge36  1  0.62536000  0.81250000  0.37464000  1.0
  Ge4+  Ge37  1  0.62536000  0.31250000  0.37464000  1.0
  Ge4+  Ge38  1  0.37464000  0.93750000  0.87464000  1.0
  Ge4+  Ge39  1  0.37920522  0.43973389  0.87222768  1.0
  Ge4+  Ge40  1  0.12464000  0.93732000  0.12500000  1.0
  Ge4+  Ge41  1  0.12161789  0.43267321  0.12395149  1.0
  Ge4+  Ge42  1  0.87536000  0.81268000  0.62500000  1.0
  Ge4+  Ge43  1  0.87536000  0.31268000  0.62500000  1.0
  Ge4+  Ge44  1  0.87500000  0.68768000  0.87536000  1.0
  Ge4+  Ge45  1  0.87500000  0.18768000  0.87536000  1.0
  Ge4+  Ge46  1  0.12500000  0.56232000  0.37536000  1.0
  Ge4+  Ge47  1  0.12500000  0.06232000  0.37536000  1.0
  O2-  O48  1  0.63653000  0.81826500  0.61347000  1.0
  O2-  O49  1  0.63560845  0.32018151  0.61643198  1.0
  O2-  O50  1  0.36347000  0.93173500  0.11347000  1.0
  O2-  O51  1  0.36347000  0.43173500  0.11347000  1.0
  O2-  O52  1  0.13653000  0.68173500  0.38653000  1.0
  O2-  O53  1  0.13653000  0.18173500  0.38653000  1.0
  O2-  O54  1  0.86347000  0.56826500  0.88653000  1.0
  O2-  O55  1  0.86347000  0.06826500  0.88653000  1.0
  O2-  O56  1  0.11347000  0.55673500  0.13653000  1.0
  O2-  O57  1  0.11347000  0.05673500  0.13653000  1.0
  O2-  O58  1  0.61347000  0.94326500  0.86347000  1.0
  O2-  O59  1  0.61559402  0.44458883  0.86726214  1.0
  O2-  O60  1  0.88735385  0.69545651  0.63544312  1.0
  O2-  O61  1  0.88653000  0.19326500  0.63653000  1.0
  O2-  O62  1  0.38653000  0.80673500  0.36347000  1.0
  O2-  O63  1  0.38653000  0.30673500  0.36347000  1.0
  O2-  O64  1  0.64490000  0.67453000  0.86896000  1.0
  O2-  O65  1  0.64490000  0.17453000  0.86896000  1.0
  O2-  O66  1  0.35486733  0.57694528  0.36695942  1.0
  O2-  O67  1  0.35510000  0.07547000  0.36896000  1.0
  O2-  O68  1  0.38104000  0.82245000  0.90094000  1.0
  O2-  O69  1  0.38243004  0.32388355  0.89872714  1.0
  O2-  O70  1  0.61884510  0.92971529  0.40008857  1.0
  O2-  O71  1  0.61896000  0.42755000  0.40094000  1.0
  O2-  O72  1  0.34469815  0.69033322  0.60868302  1.0
  O2-  O73  1  0.34804758  0.19211726  0.60491556  1.0
  O2-  O74  1  0.64530208  0.55911699  0.10795391  1.0
  O2-  O75  1  0.65406861  0.05727943  0.10800297  1.0
  O2-  O76  1  0.14490000  0.82547000  0.13104000  1.0
  O2-  O77  1  0.14490000  0.32547000  0.13104000  1.0
  O2-  O78  1  0.85451338  0.92049341  0.63199865  1.0
  O2-  O79  1  0.85510000  0.42453000  0.63104000  1.0
  O2-  O80  1  0.88104000  0.67755000  0.09906000  1.0
  O2-  O81  1  0.88104000  0.17755000  0.09906000  1.0
  O2-  O82  1  0.11896000  0.57245000  0.59906000  1.0
  O2-  O83  1  0.11896000  0.07245000  0.59906000  1.0
  O2-  O84  1  0.84966359  0.81222070  0.39414260  1.0
  O2-  O85  1  0.84906000  0.30948000  0.39490000  1.0
  O2-  O86  1  0.14871508  0.93359998  0.89838232  1.0
  O2-  O87  1  0.15094000  0.44052000  0.89490000  1.0
  O2-  O88  1  0.36454999  0.69480165  0.14220438  1.0
  O2-  O89  1  0.36896000  0.20047000  0.14490000  1.0
  O2-  O90  1  0.86896000  0.79953000  0.85510000  1.0
  O2-  O91  1  0.86896000  0.29953000  0.85510000  1.0
  O2-  O92  1  0.62877839  0.54807224  0.64198819  1.0
  O2-  O93  1  0.63104000  0.04953000  0.64490000  1.0
  O2-  O94  1  0.13104000  0.95047000  0.35510000  1.0
  O2-  O95  1  0.13104000  0.45047000  0.35510000  1.0
  O2-  O96  1  0.89588956  0.56751269  0.34757728  1.0
  O2-  O97  1  0.89490000  0.06552000  0.34906000  1.0
  O2-  O98  1  0.10313292  0.68026134  0.85141618  1.0
  O2-  O99  1  0.10371085  0.18517470  0.85165924  1.0
  O2-  O100  1  0.60776215  0.81202051  0.15048801  1.0
  O2-  O101  1  0.60510000  0.31552000  0.15094000  1.0
  O2-  O102  1  0.39490000  0.93448000  0.65094000  1.0
  O2-  O103  1  0.39490000  0.43448000  0.65094000  1.0
  O2-  O104  1  0.40094000  0.55255000  0.88104000  1.0
  O2-  O105  1  0.39789711  0.05768000  0.87613378  1.0
  O2-  O106  1  0.90071463  0.94678348  0.12197659  1.0
  O2-  O107  1  0.90094000  0.44745000  0.11896000  1.0
  O2-  O108  1  0.59906000  0.69745000  0.38104000  1.0
  O2-  O109  1  0.59906000  0.19745000  0.38104000  1.0
  O2-  O110  1  0.09906000  0.80255000  0.61896000  1.0
  O2-  O111  1  0.09906000  0.30255000  0.61896000  1.0
