# generated using pymatgen
data_Li2ZnGe3O8
_symmetry_space_group_name_H-M   'P 1'
_cell_length_a   8.24501301
_cell_length_b   8.24501301
_cell_length_c   16.49002603
_cell_angle_alpha   90.00000000
_cell_angle_beta   90.00000000
_cell_angle_gamma   90.00000000
_symmetry_Int_Tables_number   1
_chemical_formula_structural   Li2ZnGe3O8
_chemical_formula_sum   'Li16 Zn8 Ge24 O64'
_cell_volume   1120.99591946
_cell_formula_units_Z   8
loop_
 _symmetry_equiv_pos_site_id
 _symmetry_equiv_pos_as_xyz
  1  'x, y, z'
loop_
 _atom_type_symbol
 _atom_type_oxidation_number
  Li+  1.0
  Zn2+  2.0
  Ge4+  4.0
  O2-  -2.0
loop_
 _atom_site_type_symbol
 _atom_site_label
 _atom_site_symmetry_multiplicity
 _atom_site_fract_x
 _atom_site_fract_y
 _atom_site_fract_z
 _atom_site_occupancy
  Li+  Li0  1  0.62500000  0.79166667  0.06250000  1.0
  Li+  Li1  1  0.62500000  0.79166667  0.56250000  1.0
  Li+  Li2  1  0.12500000  0.54166667  0.18750000  1.0
  Li+  Li3  1  0.12500000  0.54166667  0.68750000  1.0
  Li+  Li4  1  0.87500000  0.29166667  0.43750000  1.0
  Li+  Li5  1  0.87500000  0.29166667  0.93750000  1.0
  Li+  Li6  1  0.37500000  0.04166667  0.31250000  1.0
  Li+  Li7  1  0.37500000  0.04166667  0.81250000  1.0
  Li+  Li8  1  0.24512000  0.41178667  0.37256000  1.0
  Li+  Li9  1  0.74512000  0.92154667  0.37744000  1.0
  Li+  Li10  1  0.25488000  0.91178667  0.12744000  1.0
  Li+  Li11  1  0.25488000  0.91178667  0.62744000  1.0
  Li+  Li12  1  0.75488000  0.42154667  0.62256000  1.0
  Li+  Li13  1  0.00488000  0.17154667  0.75244000  1.0
  Li+  Li14  1  0.50488000  0.16178667  0.99756000  1.0
  Li+  Li15  1  0.99512000  0.66178667  0.00244000  1.0
  Zn2+  Zn16  1  0.24512000  0.41178667  0.87256000  1.0
  Zn2+  Zn17  1  0.74512000  0.92154667  0.87744000  1.0
  Zn2+  Zn18  1  0.75488000  0.42154667  0.12256000  1.0
  Zn2+  Zn19  1  0.00488000  0.17154667  0.25244000  1.0
  Zn2+  Zn20  1  0.49512000  0.67154667  0.24756000  1.0
  Zn2+  Zn21  1  0.49512000  0.67154667  0.74756000  1.0
  Zn2+  Zn22  1  0.50488000  0.16178667  0.49756000  1.0
  Zn2+  Zn23  1  0.99512000  0.66178667  0.50244000  1.0
  Ge4+  Ge24  1  0.87536000  0.54130667  0.31250000  1.0
  Ge4+  Ge25  1  0.87536000  0.54130667  0.81250000  1.0
  Ge4+  Ge26  1  0.37536000  0.79202667  0.43750000  1.0
  Ge4+  Ge27  1  0.37536000  0.79202667  0.93750000  1.0
  Ge4+  Ge28  1  0.12500000  0.04202667  0.43732000  1.0
  Ge4+  Ge29  1  0.12500000  0.04202667  0.93732000  1.0
  Ge4+  Ge30  1  0.62500000  0.29130667  0.31268000  1.0
  Ge4+  Ge31  1  0.62500000  0.29130667  0.81268000  1.0
  Ge4+  Ge32  1  0.37464000  0.29166667  0.18768000  1.0
  Ge4+  Ge33  1  0.37464000  0.29166667  0.68768000  1.0
  Ge4+  Ge34  1  0.87464000  0.04166667  0.06232000  1.0
  Ge4+  Ge35  1  0.87464000  0.04166667  0.56232000  1.0
  Ge4+  Ge36  1  0.62464000  0.04130667  0.18750000  1.0
  Ge4+  Ge37  1  0.62464000  0.04130667  0.68750000  1.0
  Ge4+  Ge38  1  0.12464000  0.29202667  0.06250000  1.0
  Ge4+  Ge39  1  0.12464000  0.29202667  0.56250000  1.0
  Ge4+  Ge40  1  0.37500000  0.54202667  0.06268000  1.0
  Ge4+  Ge41  1  0.37500000  0.54202667  0.56268000  1.0
  Ge4+  Ge42  1  0.87500000  0.79130667  0.18732000  1.0
  Ge4+  Ge43  1  0.87500000  0.79130667  0.68732000  1.0
  Ge4+  Ge44  1  0.12536000  0.79166667  0.31232000  1.0
  Ge4+  Ge45  1  0.12536000  0.79166667  0.81232000  1.0
  Ge4+  Ge46  1  0.62536000  0.54166667  0.43768000  1.0
  Ge4+  Ge47  1  0.62536000  0.54166667  0.93768000  1.0
  O2-  O48  1  0.86347000  0.03013667  0.18173500  1.0
  O2-  O49  1  0.86347000  0.03013667  0.68173500  1.0
  O2-  O50  1  0.36347000  0.30319667  0.06826500  1.0
  O2-  O51  1  0.36347000  0.30319667  0.56826500  1.0
  O2-  O52  1  0.63653000  0.53013667  0.31826500  1.0
  O2-  O53  1  0.63653000  0.53013667  0.81826500  1.0
  O2-  O54  1  0.13653000  0.80319667  0.43173500  1.0
  O2-  O55  1  0.13653000  0.80319667  0.93173500  1.0
  O2-  O56  1  0.38653000  0.55319667  0.44326500  1.0
  O2-  O57  1  0.38653000  0.55319667  0.94326500  1.0
  O2-  O58  1  0.11347000  0.05319667  0.05673500  1.0
  O2-  O59  1  0.11347000  0.05319667  0.55673500  1.0
  O2-  O60  1  0.88653000  0.78013667  0.30673500  1.0
  O2-  O61  1  0.88653000  0.78013667  0.80673500  1.0
  O2-  O62  1  0.61347000  0.28013667  0.19326500  1.0
  O2-  O63  1  0.61347000  0.28013667  0.69326500  1.0
  O2-  O64  1  0.11896000  0.02176667  0.32547000  1.0
  O2-  O65  1  0.11896000  0.02176667  0.82547000  1.0
  O2-  O66  1  0.61896000  0.31156667  0.42453000  1.0
  O2-  O67  1  0.61896000  0.31156667  0.92453000  1.0
  O2-  O68  1  0.15094000  0.28562667  0.17755000  1.0
  O2-  O69  1  0.15094000  0.28562667  0.67755000  1.0
  O2-  O70  1  0.65094000  0.04770667  0.07245000  1.0
  O2-  O71  1  0.65094000  0.04770667  0.57245000  1.0
  O2-  O72  1  0.85510000  0.31760667  0.30948000  1.0
  O2-  O73  1  0.85510000  0.31760667  0.80948000  1.0
  O2-  O74  1  0.35510000  0.01572667  0.44052000  1.0
  O2-  O75  1  0.35510000  0.01572667  0.94052000  1.0
  O2-  O76  1  0.38104000  0.52176667  0.17453000  1.0
  O2-  O77  1  0.38104000  0.52176667  0.67453000  1.0
  O2-  O78  1  0.88104000  0.81156667  0.07547000  1.0
  O2-  O79  1  0.88104000  0.81156667  0.57547000  1.0
  O2-  O80  1  0.34906000  0.78562667  0.32245000  1.0
  O2-  O81  1  0.34906000  0.78562667  0.82245000  1.0
  O2-  O82  1  0.84906000  0.54770667  0.42755000  1.0
  O2-  O83  1  0.84906000  0.54770667  0.92755000  1.0
  O2-  O84  1  0.64490000  0.81760667  0.19052000  1.0
  O2-  O85  1  0.64490000  0.81760667  0.69052000  1.0
  O2-  O86  1  0.14490000  0.51572667  0.05948000  1.0
  O2-  O87  1  0.14490000  0.51572667  0.55948000  1.0
  O2-  O88  1  0.39490000  0.29770667  0.29953000  1.0
  O2-  O89  1  0.39490000  0.29770667  0.79953000  1.0
  O2-  O90  1  0.10510000  0.79770667  0.20047000  1.0
  O2-  O91  1  0.10510000  0.79770667  0.70047000  1.0
  O2-  O92  1  0.89490000  0.03562667  0.45047000  1.0
  O2-  O93  1  0.89490000  0.03562667  0.95047000  1.0
  O2-  O94  1  0.60510000  0.53562667  0.04953000  1.0
  O2-  O95  1  0.60510000  0.53562667  0.54953000  1.0
  O2-  O96  1  0.59906000  0.77176667  0.43448000  1.0
  O2-  O97  1  0.59906000  0.77176667  0.93448000  1.0
  O2-  O98  1  0.09906000  0.56156667  0.31552000  1.0
  O2-  O99  1  0.09906000  0.56156667  0.81552000  1.0
  O2-  O100  1  0.40094000  0.06156667  0.18448000  1.0
  O2-  O101  1  0.40094000  0.06156667  0.68448000  1.0
  O2-  O102  1  0.90094000  0.27176667  0.06552000  1.0
  O2-  O103  1  0.90094000  0.27176667  0.56552000  1.0
  O2-  O104  1  0.13104000  0.26572667  0.44745000  1.0
  O2-  O105  1  0.13104000  0.26572667  0.94745000  1.0
  O2-  O106  1  0.36896000  0.76572667  0.05255000  1.0
  O2-  O107  1  0.36896000  0.76572667  0.55255000  1.0
  O2-  O108  1  0.63104000  0.06760667  0.30255000  1.0
  O2-  O109  1  0.63104000  0.06760667  0.80255000  1.0
  O2-  O110  1  0.86896000  0.56760667  0.19745000  1.0
  O2-  O111  1  0.86896000  0.56760667  0.69745000  1.0
