# generated using pymatgen
data_Li4Al3B4BrO12
_symmetry_space_group_name_H-M   'P 1'
_cell_length_a   18.31547984
_cell_length_b   18.31547985
_cell_length_c   9.15773992
_cell_angle_alpha   60.00000000
_cell_angle_beta   120.00000000
_cell_angle_gamma   120.00000000
_symmetry_Int_Tables_number   1
_chemical_formula_structural   Li4Al3B4BrO12
_chemical_formula_sum   'Li32 Al24 B32 Br8 O96'
_cell_volume   2172.25052030
_cell_formula_units_Z   8
loop_
 _symmetry_equiv_pos_site_id
 _symmetry_equiv_pos_as_xyz
  1  'x, y, z'
loop_
 _atom_type_symbol
 _atom_type_oxidation_number
  Li+  1.0
  Al3+  3.0
  B3+  3.0
  Br-  -1.0
  O2-  -2.0
loop_
 _atom_site_type_symbol
 _atom_site_label
 _atom_site_symmetry_multiplicity
 _atom_site_fract_x
 _atom_site_fract_y
 _atom_site_fract_z
 _atom_site_occupancy
  Li+  Li0  1  0.06400000  0.93600000  0.13400000  1.0
  Li+  Li1  1  0.56400000  0.93600000  0.13400000  1.0
  Li+  Li2  1  0.06400000  0.43600000  0.13400000  1.0
  Li+  Li3  1  0.56400000  0.43600000  0.13400000  1.0
  Li+  Li4  1  0.31400000  0.68600000  0.63400000  1.0
  Li+  Li5  1  0.81400000  0.68600000  0.63400000  1.0
  Li+  Li6  1  0.31400000  0.18600000  0.63400000  1.0
  Li+  Li7  1  0.81400000  0.18600000  0.63400000  1.0
  Li+  Li8  1  0.25000000  0.50000000  0.75000000  1.0
  Li+  Li9  1  0.75000000  0.50000000  0.75000000  1.0
  Li+  Li10  1  0.25000000  0.00000000  0.75000000  1.0
  Li+  Li11  1  0.74780345  0.00044491  0.75333028  1.0
  Li+  Li12  1  0.25000000  0.75000000  0.75000000  1.0
  Li+  Li13  1  0.75460800  0.74996435  0.74854988  1.0
  Li+  Li14  1  0.25000000  0.25000000  0.75000000  1.0
  Li+  Li15  1  0.75000000  0.25000000  0.75000000  1.0
  Li+  Li16  1  0.00000000  0.75000000  0.75000000  1.0
  Li+  Li17  1  0.50000000  0.75000000  0.75000000  1.0
  Li+  Li18  1  0.00000000  0.25000000  0.75000000  1.0
  Li+  Li19  1  0.50000000  0.25000000  0.75000000  1.0
  Li+  Li20  1  0.00000000  0.50000000  0.25000000  1.0
  Li+  Li21  1  0.50000000  0.50000000  0.25000000  1.0
  Li+  Li22  1  0.00000000  0.00000000  0.25000000  1.0
  Li+  Li23  1  0.50000000  0.00000000  0.25000000  1.0
  Li+  Li24  1  0.25000000  0.00000000  0.25000000  1.0
  Li+  Li25  1  0.75113491  0.99864917  0.24776061  1.0
  Li+  Li26  1  0.25000000  0.50000000  0.25000000  1.0
  Li+  Li27  1  0.75000000  0.50000000  0.25000000  1.0
  Li+  Li28  1  0.00084154  0.75671328  0.24950653  1.0
  Li+  Li29  1  0.50427352  0.74800499  0.25474607  1.0
  Li+  Li30  1  0.00000000  0.25000000  0.25000000  1.0
  Li+  Li31  1  0.50000000  0.25000000  0.25000000  1.0
  Al3+  Al32  1  0.12500000  0.62500000  0.00000000  1.0
  Al3+  Al33  1  0.62500000  0.62500000  0.00000000  1.0
  Al3+  Al34  1  0.12500000  0.12500000  0.00000000  1.0
  Al3+  Al35  1  0.62500000  0.12500000  0.00000000  1.0
  Al3+  Al36  1  0.12281287  0.87558679  0.99625884  1.0
  Al3+  Al37  1  0.62500000  0.87500000  0.00000000  1.0
  Al3+  Al38  1  0.12500000  0.37500000  0.00000000  1.0
  Al3+  Al39  1  0.62500000  0.37500000  0.00000000  1.0
  Al3+  Al40  1  0.37500000  0.87500000  0.00000000  1.0
  Al3+  Al41  1  0.87928794  0.87221111  0.99294254  1.0
  Al3+  Al42  1  0.37705430  0.37402805  0.99853361  1.0
  Al3+  Al43  1  0.87442978  0.37156736  0.99785786  1.0
  Al3+  Al44  1  0.37500000  0.62500000  0.50000000  1.0
  Al3+  Al45  1  0.87500000  0.62500000  0.50000000  1.0
  Al3+  Al46  1  0.37500000  0.12500000  0.50000000  1.0
  Al3+  Al47  1  0.87336747  0.12051012  0.50000148  1.0
  Al3+  Al48  1  0.12500000  0.62500000  0.50000000  1.0
  Al3+  Al49  1  0.62500000  0.62500000  0.50000000  1.0
  Al3+  Al50  1  0.12707510  0.12705181  0.50249637  1.0
  Al3+  Al51  1  0.62500000  0.12500000  0.50000000  1.0
  Al3+  Al52  1  0.37500000  0.87500000  0.50000000  1.0
  Al3+  Al53  1  0.87500000  0.87500000  0.50000000  1.0
  Al3+  Al54  1  0.37500000  0.37500000  0.50000000  1.0
  Al3+  Al55  1  0.87500000  0.37500000  0.50000000  1.0
  B3+  B56  1  0.19650000  0.80350000  0.92900000  1.0
  B3+  B57  1  0.69650000  0.80350000  0.92900000  1.0
  B3+  B58  1  0.19650000  0.30350000  0.92900000  1.0
  B3+  B59  1  0.69650000  0.30350000  0.92900000  1.0
  B3+  B60  1  0.19650000  0.58950000  0.35700000  1.0
  B3+  B61  1  0.69650000  0.58950000  0.35700000  1.0
  B3+  B62  1  0.19650000  0.08950000  0.35700000  1.0
  B3+  B63  1  0.69650000  0.08950000  0.35700000  1.0
  B3+  B64  1  0.41050000  0.80350000  0.35700000  1.0
  B3+  B65  1  0.91050000  0.80350000  0.35700000  1.0
  B3+  B66  1  0.41050000  0.30350000  0.35700000  1.0
  B3+  B67  1  0.91050000  0.30350000  0.35700000  1.0
  B3+  B68  1  0.19948090  0.81060232  0.35299973  1.0
  B3+  B69  1  0.69531944  0.80474895  0.35534307  1.0
  B3+  B70  1  0.19650000  0.30350000  0.35700000  1.0
  B3+  B71  1  0.69447252  0.30315842  0.35480694  1.0
  B3+  B72  1  0.16050000  0.55350000  0.85700000  1.0
  B3+  B73  1  0.66050000  0.55350000  0.85700000  1.0
  B3+  B74  1  0.16050000  0.05350000  0.85700000  1.0
  B3+  B75  1  0.66050000  0.05350000  0.85700000  1.0
  B3+  B76  1  0.44650000  0.83950000  0.85700000  1.0
  B3+  B77  1  0.94650000  0.83950000  0.85700000  1.0
  B3+  B78  1  0.44650000  0.33950000  0.85700000  1.0
  B3+  B79  1  0.94650000  0.33950000  0.85700000  1.0
  B3+  B80  1  0.44650000  0.55350000  0.42900000  1.0
  B3+  B81  1  0.94650000  0.55350000  0.42900000  1.0
  B3+  B82  1  0.44615473  0.05694299  0.42558207  1.0
  B3+  B83  1  0.94491069  0.05467998  0.42900200  1.0
  B3+  B84  1  0.44650000  0.55350000  0.85700000  1.0
  B3+  B85  1  0.94650000  0.55350000  0.85700000  1.0
  B3+  B86  1  0.44650000  0.05350000  0.85700000  1.0
  B3+  B87  1  0.94650000  0.05350000  0.85700000  1.0
  Br-  Br88  1  0.12500000  0.87500000  0.50000000  1.0
  Br-  Br89  1  0.62500000  0.87500000  0.50000000  1.0
  Br-  Br90  1  0.12500000  0.37500000  0.50000000  1.0
  Br-  Br91  1  0.62500000  0.37500000  0.50000000  1.0
  Br-  Br92  1  0.37698698  0.62377173  0.99939330  1.0
  Br-  Br93  1  0.87500000  0.62500000  0.00000000  1.0
  Br-  Br94  1  0.36977939  0.12608687  0.99930030  1.0
  Br-  Br95  1  0.87500000  0.12500000  0.00000000  1.0
  O2-  O96  1  0.27070000  0.88040000  0.93620000  1.0
  O2-  O97  1  0.77070000  0.88040000  0.93620000  1.0
  O2-  O98  1  0.27070000  0.38040000  0.93620000  1.0
  O2-  O99  1  0.77070000  0.38040000  0.93620000  1.0
  O2-  O100  1  0.19802260  0.73061946  0.93433833  1.0
  O2-  O101  1  0.70280000  0.72930000  0.93620000  1.0
  O2-  O102  1  0.20280000  0.22930000  0.93620000  1.0
  O2-  O103  1  0.70280000  0.22930000  0.93620000  1.0
  O2-  O104  1  0.12057541  0.79774208  0.93555033  1.0
  O2-  O105  1  0.61960000  0.79720000  0.93620000  1.0
  O2-  O106  1  0.11960000  0.29720000  0.93620000  1.0
  O2-  O107  1  0.61960000  0.29720000  0.93620000  1.0
  O2-  O108  1  0.20280000  0.59310000  0.51080000  1.0
  O2-  O109  1  0.70378246  0.59425732  0.51375123  1.0
  O2-  O110  1  0.20280000  0.09310000  0.51080000  1.0
  O2-  O111  1  0.70280000  0.09310000  0.51080000  1.0
  O2-  O112  1  0.11960000  0.59310000  0.20860000  1.0
  O2-  O113  1  0.61960000  0.59310000  0.20860000  1.0
  O2-  O114  1  0.11960000  0.09310000  0.20860000  1.0
  O2-  O115  1  0.61649793  0.09728521  0.20770455  1.0
  O2-  O116  1  0.27070000  0.59310000  0.34440000  1.0
  O2-  O117  1  0.76797333  0.59083004  0.34450241  1.0
  O2-  O118  1  0.27070000  0.09310000  0.34440000  1.0
  O2-  O119  1  0.77070000  0.09310000  0.34440000  1.0
  O2-  O120  1  0.40850725  0.79717068  0.21287004  1.0
  O2-  O121  1  0.90690000  0.79720000  0.20860000  1.0
  O2-  O122  1  0.40690000  0.29720000  0.20860000  1.0
  O2-  O123  1  0.90690000  0.29720000  0.20860000  1.0
  O2-  O124  1  0.40690000  0.88040000  0.34440000  1.0
  O2-  O125  1  0.90690000  0.88040000  0.34440000  1.0
  O2-  O126  1  0.40690000  0.38040000  0.34440000  1.0
  O2-  O127  1  0.90492842  0.38400450  0.34420981  1.0
  O2-  O128  1  0.40690000  0.72930000  0.51080000  1.0
  O2-  O129  1  0.90463022  0.72965073  0.50950377  1.0
  O2-  O130  1  0.40690000  0.22930000  0.51080000  1.0
  O2-  O131  1  0.90383404  0.23033414  0.51313673  1.0
  O2-  O132  1  0.11960000  0.72930000  0.34440000  1.0
  O2-  O133  1  0.61960000  0.72930000  0.34440000  1.0
  O2-  O134  1  0.12099235  0.22871055  0.34416010  1.0
  O2-  O135  1  0.61960000  0.22930000  0.34440000  1.0
  O2-  O136  1  0.27070000  0.79720000  0.51080000  1.0
  O2-  O137  1  0.77070000  0.79720000  0.51080000  1.0
  O2-  O138  1  0.27070000  0.29720000  0.51080000  1.0
  O2-  O139  1  0.77070000  0.29720000  0.51080000  1.0
  O2-  O140  1  0.20280000  0.88040000  0.20860000  1.0
  O2-  O141  1  0.70280000  0.88040000  0.20860000  1.0
  O2-  O142  1  0.20280000  0.38040000  0.20860000  1.0
  O2-  O143  1  0.70280000  0.38040000  0.20860000  1.0
  O2-  O144  1  0.15690000  0.63040000  0.70860000  1.0
  O2-  O145  1  0.65641917  0.62890119  0.71114051  1.0
  O2-  O146  1  0.15907333  0.12934259  0.71012854  1.0
  O2-  O147  1  0.65312653  0.12772833  0.70819622  1.0
  O2-  O148  1  0.15690000  0.97930000  0.84440000  1.0
  O2-  O149  1  0.65690000  0.97930000  0.84440000  1.0
  O2-  O150  1  0.15690000  0.47930000  0.84440000  1.0
  O2-  O151  1  0.65690000  0.47930000  0.84440000  1.0
  O2-  O152  1  0.15690000  0.54720000  0.01080000  1.0
  O2-  O153  1  0.65746874  0.55049113  0.01258340  1.0
  O2-  O154  1  0.15919912  0.04788963  0.01096068  1.0
  O2-  O155  1  0.65536859  0.04916332  0.01485245  1.0
  O2-  O156  1  0.36960000  0.84310000  0.84440000  1.0
  O2-  O157  1  0.86960000  0.84310000  0.84440000  1.0
  O2-  O158  1  0.36960000  0.34310000  0.84440000  1.0
  O2-  O159  1  0.86960000  0.34310000  0.84440000  1.0
  O2-  O160  1  0.02054579  0.84518063  0.01122148  1.0
  O2-  O161  1  0.52070000  0.84310000  0.01080000  1.0
  O2-  O162  1  0.02015198  0.34311214  0.01223484  1.0
  O2-  O163  1  0.52070000  0.34310000  0.01080000  1.0
  O2-  O164  1  0.45280000  0.84310000  0.70860000  1.0
  O2-  O165  1  0.95280000  0.84310000  0.70860000  1.0
  O2-  O166  1  0.45280000  0.34310000  0.70860000  1.0
  O2-  O167  1  0.95280000  0.34310000  0.70860000  1.0
  O2-  O168  1  0.02194423  0.54641244  0.44028785  1.0
  O2-  O169  1  0.52155039  0.54824612  0.43314823  1.0
  O2-  O170  1  0.02070000  0.04720000  0.43620000  1.0
  O2-  O171  1  0.51975174  0.04860336  0.43653689  1.0
  O2-  O172  1  0.45280000  0.63040000  0.43620000  1.0
  O2-  O173  1  0.95280000  0.63040000  0.43620000  1.0
  O2-  O174  1  0.45258289  0.12890949  0.43749257  1.0
  O2-  O175  1  0.95280000  0.13040000  0.43620000  1.0
  O2-  O176  1  0.36960000  0.97930000  0.43620000  1.0
  O2-  O177  1  0.86960000  0.97930000  0.43620000  1.0
  O2-  O178  1  0.36960000  0.47930000  0.43620000  1.0
  O2-  O179  1  0.86525722  0.48057594  0.44002024  1.0
  O2-  O180  1  0.45078133  0.97944912  0.01061231  1.0
  O2-  O181  1  0.95280000  0.97930000  0.01080000  1.0
  O2-  O182  1  0.45284884  0.48365492  0.00912879  1.0
  O2-  O183  1  0.95557537  0.47626079  0.01742412  1.0
  O2-  O184  1  0.36960445  0.54631428  0.71205575  1.0
  O2-  O185  1  0.86960000  0.54720000  0.70860000  1.0
  O2-  O186  1  0.36663078  0.04839616  0.70847027  1.0
  O2-  O187  1  0.86960000  0.04720000  0.70860000  1.0
  O2-  O188  1  0.02338916  0.63558773  0.85206639  1.0
  O2-  O189  1  0.52222079  0.62810080  0.84648026  1.0
  O2-  O190  1  0.02070000  0.13040000  0.84440000  1.0
  O2-  O191  1  0.52070000  0.13040000  0.84440000  1.0
