# generated using pymatgen
data_Li4Al3B4BrO12
_symmetry_space_group_name_H-M   'P 1'
_cell_length_a   9.09079955
_cell_length_b   18.18159909
_cell_length_c   18.18159910
_cell_angle_alpha   120.00000000
_cell_angle_beta   120.00000000
_cell_angle_gamma   60.00000000
_symmetry_Int_Tables_number   1
_chemical_formula_structural   Li4Al3B4BrO12
_chemical_formula_sum   'Li32 Al24 B32 Br8 O96'
_cell_volume   2124.96234487
_cell_formula_units_Z   8
loop_
 _symmetry_equiv_pos_site_id
 _symmetry_equiv_pos_as_xyz
  1  'x, y, z'
loop_
 _atom_type_symbol
 _atom_type_oxidation_number
  Li+  1.0
  Al3+  3.0
  B3+  3.0
  Br-  -1.0
  O2-  -2.0
loop_
 _atom_site_type_symbol
 _atom_site_label
 _atom_site_symmetry_multiplicity
 _atom_site_fract_x
 _atom_site_fract_y
 _atom_site_fract_z
 _atom_site_occupancy
  Li+  Li0  1  0.38400000  0.60266667  0.06400000  1.0
  Li+  Li1  1  0.38400000  0.10266667  0.06400000  1.0
  Li+  Li2  1  0.38400000  0.60266667  0.56400000  1.0
  Li+  Li3  1  0.38400000  0.10266667  0.56400000  1.0
  Li+  Li4  1  0.88400000  0.35266667  0.31400000  1.0
  Li+  Li5  1  0.88400000  0.85266667  0.31400000  1.0
  Li+  Li6  1  0.88400000  0.35266667  0.81400000  1.0
  Li+  Li7  1  0.88400000  0.85266667  0.81400000  1.0
  Li+  Li8  1  0.00000000  0.41666667  0.50000000  1.0
  Li+  Li9  1  0.00000000  0.91666667  0.50000000  1.0
  Li+  Li10  1  0.00000000  0.41666667  0.00000000  1.0
  Li+  Li11  1  0.00000000  0.91666667  0.00000000  1.0
  Li+  Li12  1  0.00000000  0.41666667  0.25000000  1.0
  Li+  Li13  1  0.00000000  0.91666667  0.25000000  1.0
  Li+  Li14  1  0.00000000  0.41666667  0.75000000  1.0
  Li+  Li15  1  0.00000000  0.91666667  0.75000000  1.0
  Li+  Li16  1  0.00000000  0.66666667  0.25000000  1.0
  Li+  Li17  1  0.00000000  0.16666667  0.25000000  1.0
  Li+  Li18  1  0.00000000  0.66666667  0.75000000  1.0
  Li+  Li19  1  0.00000000  0.16666667  0.75000000  1.0
  Li+  Li20  1  0.50000000  0.66666667  0.50000000  1.0
  Li+  Li21  1  0.50000000  0.16666667  0.50000000  1.0
  Li+  Li22  1  0.50000000  0.66666667  0.00000000  1.0
  Li+  Li23  1  0.50000000  0.16666667  0.00000000  1.0
  Li+  Li24  1  0.50000000  0.41666667  0.00000000  1.0
  Li+  Li25  1  0.50000000  0.91666667  0.00000000  1.0
  Li+  Li26  1  0.50000000  0.41666667  0.50000000  1.0
  Li+  Li27  1  0.50000000  0.91666667  0.50000000  1.0
  Li+  Li28  1  0.50000000  0.66666667  0.25000000  1.0
  Li+  Li29  1  0.50000000  0.16666667  0.25000000  1.0
  Li+  Li30  1  0.50000000  0.66666667  0.75000000  1.0
  Li+  Li31  1  0.50000000  0.16666667  0.75000000  1.0
  Al3+  Al32  1  0.25000000  0.54166667  0.37500000  1.0
  Al3+  Al33  1  0.25000000  0.04166667  0.37500000  1.0
  Al3+  Al34  1  0.25000000  0.54166667  0.87500000  1.0
  Al3+  Al35  1  0.25000000  0.04166667  0.87500000  1.0
  Al3+  Al36  1  0.25000000  0.54166667  0.12500000  1.0
  Al3+  Al37  1  0.25000000  0.04166667  0.12500000  1.0
  Al3+  Al38  1  0.25000000  0.54166667  0.62500000  1.0
  Al3+  Al39  1  0.25000000  0.04166667  0.62500000  1.0
  Al3+  Al40  1  0.25000000  0.29166667  0.12500000  1.0
  Al3+  Al41  1  0.25000000  0.79166667  0.12500000  1.0
  Al3+  Al42  1  0.25000000  0.29166667  0.62500000  1.0
  Al3+  Al43  1  0.25000000  0.79166667  0.62500000  1.0
  Al3+  Al44  1  0.75000000  0.29166667  0.37500000  1.0
  Al3+  Al45  1  0.75000000  0.79166667  0.37500000  1.0
  Al3+  Al46  1  0.75000000  0.29166667  0.87500000  1.0
  Al3+  Al47  1  0.75000000  0.79166667  0.87500000  1.0
  Al3+  Al48  1  0.75000000  0.54166667  0.37500000  1.0
  Al3+  Al49  1  0.75000000  0.04166667  0.37500000  1.0
  Al3+  Al50  1  0.75000000  0.54166667  0.87500000  1.0
  Al3+  Al51  1  0.75000000  0.04166667  0.87500000  1.0
  Al3+  Al52  1  0.75000000  0.29166667  0.12500000  1.0
  Al3+  Al53  1  0.75000000  0.79166667  0.12500000  1.0
  Al3+  Al54  1  0.75000000  0.29166667  0.62500000  1.0
  Al3+  Al55  1  0.75000000  0.79166667  0.62500000  1.0
  B3+  B56  1  0.17900000  0.47016667  0.19650000  1.0
  B3+  B57  1  0.17900000  0.97016667  0.19650000  1.0
  B3+  B58  1  0.17900000  0.47016667  0.69650000  1.0
  B3+  B59  1  0.17900000  0.97016667  0.69650000  1.0
  B3+  B60  1  0.60700000  0.47016667  0.41050000  1.0
  B3+  B61  1  0.60700000  0.97016667  0.41050000  1.0
  B3+  B62  1  0.60700000  0.47016667  0.91050000  1.0
  B3+  B63  1  0.60700000  0.97016667  0.91050000  1.0
  B3+  B64  1  0.60700000  0.25616667  0.19650000  1.0
  B3+  B65  1  0.60700000  0.75616667  0.19650000  1.0
  B3+  B66  1  0.60700000  0.25616667  0.69650000  1.0
  B3+  B67  1  0.60700000  0.75616667  0.69650000  1.0
  B3+  B68  1  0.60700000  0.47016667  0.19650000  1.0
  B3+  B69  1  0.60700000  0.97016667  0.19650000  1.0
  B3+  B70  1  0.60700000  0.47016667  0.69650000  1.0
  B3+  B71  1  0.60700000  0.97016667  0.69650000  1.0
  B3+  B72  1  0.10700000  0.50616667  0.44650000  1.0
  B3+  B73  1  0.10700000  0.00616667  0.44650000  1.0
  B3+  B74  1  0.10700000  0.50616667  0.94650000  1.0
  B3+  B75  1  0.10700000  0.00616667  0.94650000  1.0
  B3+  B76  1  0.10700000  0.22016667  0.16050000  1.0
  B3+  B77  1  0.10700000  0.72016667  0.16050000  1.0
  B3+  B78  1  0.10700000  0.22016667  0.66050000  1.0
  B3+  B79  1  0.10700000  0.72016667  0.66050000  1.0
  B3+  B80  1  0.67900000  0.22016667  0.44650000  1.0
  B3+  B81  1  0.67900000  0.72016667  0.44650000  1.0
  B3+  B82  1  0.67900000  0.22016667  0.94650000  1.0
  B3+  B83  1  0.67900000  0.72016667  0.94650000  1.0
  B3+  B84  1  0.10700000  0.22016667  0.44650000  1.0
  B3+  B85  1  0.10700000  0.72016667  0.44650000  1.0
  B3+  B86  1  0.10700000  0.22016667  0.94650000  1.0
  B3+  B87  1  0.10700000  0.72016667  0.94650000  1.0
  Br-  Br88  1  0.75000000  0.54166667  0.12500000  1.0
  Br-  Br89  1  0.75000000  0.04166667  0.12500000  1.0
  Br-  Br90  1  0.75000000  0.54166667  0.62500000  1.0
  Br-  Br91  1  0.75000000  0.04166667  0.62500000  1.0
  Br-  Br92  1  0.25000000  0.29166667  0.37500000  1.0
  Br-  Br93  1  0.25000000  0.79166667  0.37500000  1.0
  Br-  Br94  1  0.25000000  0.29166667  0.87500000  1.0
  Br-  Br95  1  0.25000000  0.79166667  0.87500000  1.0
  O2-  O96  1  0.18620000  0.39596667  0.11960000  1.0
  O2-  O97  1  0.18620000  0.89596667  0.11960000  1.0
  O2-  O98  1  0.18620000  0.39596667  0.61960000  1.0
  O2-  O99  1  0.18620000  0.89596667  0.61960000  1.0
  O2-  O100  1  0.18620000  0.46386667  0.27070000  1.0
  O2-  O101  1  0.18620000  0.96386667  0.27070000  1.0
  O2-  O102  1  0.18620000  0.46386667  0.77070000  1.0
  O2-  O103  1  0.18620000  0.96386667  0.77070000  1.0
  O2-  O104  1  0.18620000  0.54706667  0.20280000  1.0
  O2-  O105  1  0.18620000  0.04706667  0.20280000  1.0
  O2-  O106  1  0.18620000  0.54706667  0.70280000  1.0
  O2-  O107  1  0.18620000  0.04706667  0.70280000  1.0
  O2-  O108  1  0.76080000  0.46386667  0.40690000  1.0
  O2-  O109  1  0.76080000  0.96386667  0.40690000  1.0
  O2-  O110  1  0.76080000  0.46386667  0.90690000  1.0
  O2-  O111  1  0.76080000  0.96386667  0.90690000  1.0
  O2-  O112  1  0.45860000  0.54706667  0.40690000  1.0
  O2-  O113  1  0.45860000  0.04706667  0.40690000  1.0
  O2-  O114  1  0.45860000  0.54706667  0.90690000  1.0
  O2-  O115  1  0.45860000  0.04706667  0.90690000  1.0
  O2-  O116  1  0.59440000  0.39596667  0.40690000  1.0
  O2-  O117  1  0.59440000  0.89596667  0.40690000  1.0
  O2-  O118  1  0.59440000  0.39596667  0.90690000  1.0
  O2-  O119  1  0.59440000  0.89596667  0.90690000  1.0
  O2-  O120  1  0.45860000  0.25976667  0.20280000  1.0
  O2-  O121  1  0.45860000  0.75976667  0.20280000  1.0
  O2-  O122  1  0.45860000  0.25976667  0.70280000  1.0
  O2-  O123  1  0.45860000  0.75976667  0.70280000  1.0
  O2-  O124  1  0.59440000  0.25976667  0.11960000  1.0
  O2-  O125  1  0.59440000  0.75976667  0.11960000  1.0
  O2-  O126  1  0.59440000  0.25976667  0.61960000  1.0
  O2-  O127  1  0.59440000  0.75976667  0.61960000  1.0
  O2-  O128  1  0.76080000  0.25976667  0.27070000  1.0
  O2-  O129  1  0.76080000  0.75976667  0.27070000  1.0
  O2-  O130  1  0.76080000  0.25976667  0.77070000  1.0
  O2-  O131  1  0.76080000  0.75976667  0.77070000  1.0
  O2-  O132  1  0.59440000  0.54706667  0.27070000  1.0
  O2-  O133  1  0.59440000  0.04706667  0.27070000  1.0
  O2-  O134  1  0.59440000  0.54706667  0.77070000  1.0
  O2-  O135  1  0.59440000  0.04706667  0.77070000  1.0
  O2-  O136  1  0.76080000  0.39596667  0.20280000  1.0
  O2-  O137  1  0.76080000  0.89596667  0.20280000  1.0
  O2-  O138  1  0.76080000  0.39596667  0.70280000  1.0
  O2-  O139  1  0.76080000  0.89596667  0.70280000  1.0
  O2-  O140  1  0.45860000  0.46386667  0.11960000  1.0
  O2-  O141  1  0.45860000  0.96386667  0.11960000  1.0
  O2-  O142  1  0.45860000  0.46386667  0.61960000  1.0
  O2-  O143  1  0.45860000  0.96386667  0.61960000  1.0
  O2-  O144  1  0.95860000  0.50976667  0.36960000  1.0
  O2-  O145  1  0.95860000  0.00976667  0.36960000  1.0
  O2-  O146  1  0.95860000  0.50976667  0.86960000  1.0
  O2-  O147  1  0.95860000  0.00976667  0.86960000  1.0
  O2-  O148  1  0.09440000  0.50976667  0.02070000  1.0
  O2-  O149  1  0.09440000  0.00976667  0.02070000  1.0
  O2-  O150  1  0.09440000  0.50976667  0.52070000  1.0
  O2-  O151  1  0.09440000  0.00976667  0.52070000  1.0
  O2-  O152  1  0.26080000  0.50976667  0.45280000  1.0
  O2-  O153  1  0.26080000  0.00976667  0.45280000  1.0
  O2-  O154  1  0.26080000  0.50976667  0.95280000  1.0
  O2-  O155  1  0.26080000  0.00976667  0.95280000  1.0
  O2-  O156  1  0.09440000  0.29706667  0.15690000  1.0
  O2-  O157  1  0.09440000  0.79706667  0.15690000  1.0
  O2-  O158  1  0.09440000  0.29706667  0.65690000  1.0
  O2-  O159  1  0.09440000  0.79706667  0.65690000  1.0
  O2-  O160  1  0.26080000  0.64596667  0.15690000  1.0
  O2-  O161  1  0.26080000  0.14596667  0.15690000  1.0
  O2-  O162  1  0.26080000  0.64596667  0.65690000  1.0
  O2-  O163  1  0.26080000  0.14596667  0.65690000  1.0
  O2-  O164  1  0.95860000  0.21386667  0.15690000  1.0
  O2-  O165  1  0.95860000  0.71386667  0.15690000  1.0
  O2-  O166  1  0.95860000  0.21386667  0.65690000  1.0
  O2-  O167  1  0.95860000  0.71386667  0.65690000  1.0
  O2-  O168  1  0.68620000  0.64596667  0.45280000  1.0
  O2-  O169  1  0.68620000  0.14596667  0.45280000  1.0
  O2-  O170  1  0.68620000  0.64596667  0.95280000  1.0
  O2-  O171  1  0.68620000  0.14596667  0.95280000  1.0
  O2-  O172  1  0.68620000  0.21386667  0.36960000  1.0
  O2-  O173  1  0.68620000  0.71386667  0.36960000  1.0
  O2-  O174  1  0.68620000  0.21386667  0.86960000  1.0
  O2-  O175  1  0.68620000  0.71386667  0.86960000  1.0
  O2-  O176  1  0.68620000  0.29706667  0.02070000  1.0
  O2-  O177  1  0.68620000  0.79706667  0.02070000  1.0
  O2-  O178  1  0.68620000  0.29706667  0.52070000  1.0
  O2-  O179  1  0.68620000  0.79706667  0.52070000  1.0
  O2-  O180  1  0.26080000  0.21386667  0.02070000  1.0
  O2-  O181  1  0.26080000  0.71386667  0.02070000  1.0
  O2-  O182  1  0.26080000  0.21386667  0.52070000  1.0
  O2-  O183  1  0.26080000  0.71386667  0.52070000  1.0
  O2-  O184  1  0.95860000  0.29706667  0.45280000  1.0
  O2-  O185  1  0.95860000  0.79706667  0.45280000  1.0
  O2-  O186  1  0.95860000  0.29706667  0.95280000  1.0
  O2-  O187  1  0.95860000  0.79706667  0.95280000  1.0
  O2-  O188  1  0.09440000  0.64596667  0.36960000  1.0
  O2-  O189  1  0.09440000  0.14596667  0.36960000  1.0
  O2-  O190  1  0.09440000  0.64596667  0.86960000  1.0
  O2-  O191  1  0.09440000  0.14596667  0.86960000  1.0
