# generated using pymatgen
data_Li4Al3B4BrO12
_symmetry_space_group_name_H-M   'P 1'
_cell_length_a   18.31547984
_cell_length_b   9.15773992
_cell_length_c   18.31547985
_cell_angle_alpha   60.00000000
_cell_angle_beta   60.00000000
_cell_angle_gamma   60.00000000
_symmetry_Int_Tables_number   1
_chemical_formula_structural   Li4Al3B4BrO12
_chemical_formula_sum   'Li32 Al24 B32 Br8 O96'
_cell_volume   2172.25052030
_cell_formula_units_Z   8
loop_
 _symmetry_equiv_pos_site_id
 _symmetry_equiv_pos_as_xyz
  1  'x, y, z'
loop_
 _atom_type_symbol
 _atom_type_oxidation_number
  Li+  1.0
  Al3+  3.0
  B3+  3.0
  Br-  -1.0
  O2-  -2.0
loop_
 _atom_site_type_symbol
 _atom_site_label
 _atom_site_symmetry_multiplicity
 _atom_site_fract_x
 _atom_site_fract_y
 _atom_site_fract_z
 _atom_site_occupancy
  Li+  Li0  1  0.06400000  0.61600000  0.06400000  1.0
  Li+  Li0  1  0.56400000  0.61600000  0.06400000  1.0
  Li+  Li1  1  0.06400000  0.61600000  0.56400000  1.0
  Li+  Li1  1  0.56400000  0.61600000  0.56400000  1.0
  Li+  Li2  1  0.31400000  0.11600000  0.31400000  1.0
  Li+  Li2  1  0.81400000  0.11600000  0.31400000  1.0
  Li+  Li3  1  0.31400000  0.11600000  0.81400000  1.0
  Li+  Li3  1  0.81400000  0.11600000  0.81400000  1.0
  Li+  Li4  1  0.25000000  0.00000000  0.50000000  1.0
  Li+  Li4  1  0.75000000  0.00000000  0.50000000  1.0
  Li+  Li5  1  0.25000000  0.00000000  0.00000000  1.0
  Li+  Li5  1  0.75000000  0.00000000  0.00000000  1.0
  Li+  Li6  1  0.25000000  0.00000000  0.25000000  1.0
  Li+  Li6  1  0.75000000  0.00000000  0.25000000  1.0
  Li+  Li7  1  0.25000000  0.00000000  0.75000000  1.0
  Li+  Li7  1  0.75000000  0.00000000  0.75000000  1.0
  Li+  Li8  1  0.00000000  0.00000000  0.25000000  1.0
  Li+  Li8  1  0.50000000  0.00000000  0.25000000  1.0
  Li+  Li9  1  0.00000000  0.00000000  0.75000000  1.0
  Li+  Li9  1  0.50000000  0.00000000  0.75000000  1.0
  Li+  Li10  1  0.00000000  0.50000000  0.50000000  1.0
  Li+  Li10  1  0.50000000  0.50000000  0.50000000  1.0
  Li+  Li11  1  0.00000000  0.50000000  0.00000000  1.0
  Li+  Li11  1  0.50000000  0.50000000  0.00000000  1.0
  Li+  Li12  1  0.25000000  0.50000000  0.00000000  1.0
  Li+  Li12  1  0.75000000  0.50000000  0.00000000  1.0
  Li+  Li13  1  0.25000000  0.50000000  0.50000000  1.0
  Li+  Li13  1  0.75000000  0.50000000  0.50000000  1.0
  Li+  Li14  1  0.00000000  0.50000000  0.25000000  1.0
  Li+  Li14  1  0.50000000  0.50000000  0.25000000  1.0
  Li+  Li15  1  0.00000000  0.50000000  0.75000000  1.0
  Li+  Li15  1  0.50000000  0.50000000  0.75000000  1.0
  Al3+  Al1  1  0.12500000  0.75000000  0.37500000  1.0
  Al3+  Al1  1  0.62500000  0.75000000  0.37500000  1.0
  Al3+  Al1  1  0.12500000  0.75000000  0.87500000  1.0
  Al3+  Al1  1  0.62500000  0.75000000  0.87500000  1.0
  Al3+  Al1  1  0.12500000  0.75000000  0.12500000  1.0
  Al3+  Al1  1  0.62500000  0.75000000  0.12500000  1.0
  Al3+  Al1  1  0.12500000  0.75000000  0.62500000  1.0
  Al3+  Al1  1  0.62500000  0.75000000  0.62500000  1.0
  Al3+  Al1  1  0.37500000  0.75000000  0.12500000  1.0
  Al3+  Al1  1  0.87500000  0.75000000  0.12500000  1.0
  Al3+  Al1  1  0.37500000  0.75000000  0.62500000  1.0
  Al3+  Al1  1  0.87500000  0.75000000  0.62500000  1.0
  Al3+  Al1  1  0.37500000  0.25000000  0.37500000  1.0
  Al3+  Al1  1  0.87500000  0.25000000  0.37500000  1.0
  Al3+  Al1  1  0.37500000  0.25000000  0.87500000  1.0
  Al3+  Al1  1  0.87500000  0.25000000  0.87500000  1.0
  Al3+  Al1  1  0.12500000  0.25000000  0.37500000  1.0
  Al3+  Al1  1  0.62500000  0.25000000  0.37500000  1.0
  Al3+  Al1  1  0.12500000  0.25000000  0.87500000  1.0
  Al3+  Al1  1  0.62500000  0.25000000  0.87500000  1.0
  Al3+  Al1  1  0.37500000  0.25000000  0.12500000  1.0
  Al3+  Al1  1  0.87500000  0.25000000  0.12500000  1.0
  Al3+  Al1  1  0.37500000  0.25000000  0.62500000  1.0
  Al3+  Al1  1  0.87500000  0.25000000  0.62500000  1.0
  B3+  B2  1  0.19650000  0.82100000  0.19650000  1.0
  B3+  B2  1  0.69650000  0.82100000  0.19650000  1.0
  B3+  B2  1  0.19650000  0.82100000  0.69650000  1.0
  B3+  B2  1  0.69650000  0.82100000  0.69650000  1.0
  B3+  B2  1  0.19650000  0.39300000  0.41050000  1.0
  B3+  B2  1  0.69650000  0.39300000  0.41050000  1.0
  B3+  B2  1  0.19650000  0.39300000  0.91050000  1.0
  B3+  B2  1  0.69650000  0.39300000  0.91050000  1.0
  B3+  B2  1  0.41050000  0.39300000  0.19650000  1.0
  B3+  B2  1  0.91050000  0.39300000  0.19650000  1.0
  B3+  B2  1  0.41050000  0.39300000  0.69650000  1.0
  B3+  B2  1  0.91050000  0.39300000  0.69650000  1.0
  B3+  B2  1  0.19650000  0.39300000  0.19650000  1.0
  B3+  B2  1  0.69650000  0.39300000  0.19650000  1.0
  B3+  B2  1  0.19650000  0.39300000  0.69650000  1.0
  B3+  B2  1  0.69650000  0.39300000  0.69650000  1.0
  B3+  B2  1  0.16050000  0.89300000  0.44650000  1.0
  B3+  B2  1  0.66050000  0.89300000  0.44650000  1.0
  B3+  B2  1  0.16050000  0.89300000  0.94650000  1.0
  B3+  B2  1  0.66050000  0.89300000  0.94650000  1.0
  B3+  B2  1  0.44650000  0.89300000  0.16050000  1.0
  B3+  B2  1  0.94650000  0.89300000  0.16050000  1.0
  B3+  B2  1  0.44650000  0.89300000  0.66050000  1.0
  B3+  B2  1  0.94650000  0.89300000  0.66050000  1.0
  B3+  B2  1  0.44650000  0.32100000  0.44650000  1.0
  B3+  B2  1  0.94650000  0.32100000  0.44650000  1.0
  B3+  B2  1  0.44650000  0.32100000  0.94650000  1.0
  B3+  B2  1  0.94650000  0.32100000  0.94650000  1.0
  B3+  B2  1  0.44650000  0.89300000  0.44650000  1.0
  B3+  B2  1  0.94650000  0.89300000  0.44650000  1.0
  B3+  B2  1  0.44650000  0.89300000  0.94650000  1.0
  B3+  B2  1  0.94650000  0.89300000  0.94650000  1.0
  Br-  Br44  1  0.12500000  0.25000000  0.12500000  1.0
  Br-  Br44  1  0.62500000  0.25000000  0.12500000  1.0
  Br-  Br45  1  0.12500000  0.25000000  0.62500000  1.0
  Br-  Br45  1  0.62500000  0.25000000  0.62500000  1.0
  Br-  Br46  1  0.37500000  0.75000000  0.37500000  1.0
  Br-  Br46  1  0.87500000  0.75000000  0.37500000  1.0
  Br-  Br47  1  0.37500000  0.75000000  0.87500000  1.0
  Br-  Br47  1  0.87500000  0.75000000  0.87500000  1.0
  O2-  O1  1  0.27070000  0.81380000  0.11960000  1.0
  O2-  O1  1  0.77070000  0.81380000  0.11960000  1.0
  O2-  O1  1  0.27070000  0.81380000  0.61960000  1.0
  O2-  O1  1  0.77070000  0.81380000  0.61960000  1.0
  O2-  O1  1  0.20280000  0.81380000  0.27070000  1.0
  O2-  O1  1  0.70280000  0.81380000  0.27070000  1.0
  O2-  O1  1  0.20280000  0.81380000  0.77070000  1.0
  O2-  O1  1  0.70280000  0.81380000  0.77070000  1.0
  O2-  O1  1  0.11960000  0.81380000  0.20280000  1.0
  O2-  O1  1  0.61960000  0.81380000  0.20280000  1.0
  O2-  O1  1  0.11960000  0.81380000  0.70280000  1.0
  O2-  O1  1  0.61960000  0.81380000  0.70280000  1.0
  O2-  O1  1  0.20280000  0.23920000  0.40690000  1.0
  O2-  O1  1  0.70280000  0.23920000  0.40690000  1.0
  O2-  O1  1  0.20280000  0.23920000  0.90690000  1.0
  O2-  O1  1  0.70280000  0.23920000  0.90690000  1.0
  O2-  O1  1  0.11960000  0.54140000  0.40690000  1.0
  O2-  O1  1  0.61960000  0.54140000  0.40690000  1.0
  O2-  O1  1  0.11960000  0.54140000  0.90690000  1.0
  O2-  O1  1  0.61960000  0.54140000  0.90690000  1.0
  O2-  O1  1  0.27070000  0.40560000  0.40690000  1.0
  O2-  O1  1  0.77070000  0.40560000  0.40690000  1.0
  O2-  O1  1  0.27070000  0.40560000  0.90690000  1.0
  O2-  O1  1  0.77070000  0.40560000  0.90690000  1.0
  O2-  O1  1  0.40690000  0.54140000  0.20280000  1.0
  O2-  O1  1  0.90690000  0.54140000  0.20280000  1.0
  O2-  O1  1  0.40690000  0.54140000  0.70280000  1.0
  O2-  O1  1  0.90690000  0.54140000  0.70280000  1.0
  O2-  O1  1  0.40690000  0.40560000  0.11960000  1.0
  O2-  O1  1  0.90690000  0.40560000  0.11960000  1.0
  O2-  O1  1  0.40690000  0.40560000  0.61960000  1.0
  O2-  O1  1  0.90690000  0.40560000  0.61960000  1.0
  O2-  O1  1  0.40690000  0.23920000  0.27070000  1.0
  O2-  O1  1  0.90690000  0.23920000  0.27070000  1.0
  O2-  O1  1  0.40690000  0.23920000  0.77070000  1.0
  O2-  O1  1  0.90690000  0.23920000  0.77070000  1.0
  O2-  O1  1  0.11960000  0.40560000  0.27070000  1.0
  O2-  O1  1  0.61960000  0.40560000  0.27070000  1.0
  O2-  O1  1  0.11960000  0.40560000  0.77070000  1.0
  O2-  O1  1  0.61960000  0.40560000  0.77070000  1.0
  O2-  O1  1  0.27070000  0.23920000  0.20280000  1.0
  O2-  O1  1  0.77070000  0.23920000  0.20280000  1.0
  O2-  O1  1  0.27070000  0.23920000  0.70280000  1.0
  O2-  O1  1  0.77070000  0.23920000  0.70280000  1.0
  O2-  O1  1  0.20280000  0.54140000  0.11960000  1.0
  O2-  O1  1  0.70280000  0.54140000  0.11960000  1.0
  O2-  O1  1  0.20280000  0.54140000  0.61960000  1.0
  O2-  O1  1  0.70280000  0.54140000  0.61960000  1.0
  O2-  O1  1  0.15690000  0.04140000  0.36960000  1.0
  O2-  O1  1  0.65690000  0.04140000  0.36960000  1.0
  O2-  O1  1  0.15690000  0.04140000  0.86960000  1.0
  O2-  O1  1  0.65690000  0.04140000  0.86960000  1.0
  O2-  O1  1  0.15690000  0.90560000  0.02070000  1.0
  O2-  O1  1  0.65690000  0.90560000  0.02070000  1.0
  O2-  O1  1  0.15690000  0.90560000  0.52070000  1.0
  O2-  O1  1  0.65690000  0.90560000  0.52070000  1.0
  O2-  O1  1  0.15690000  0.73920000  0.45280000  1.0
  O2-  O1  1  0.65690000  0.73920000  0.45280000  1.0
  O2-  O1  1  0.15690000  0.73920000  0.95280000  1.0
  O2-  O1  1  0.65690000  0.73920000  0.95280000  1.0
  O2-  O1  1  0.36960000  0.90560000  0.15690000  1.0
  O2-  O1  1  0.86960000  0.90560000  0.15690000  1.0
  O2-  O1  1  0.36960000  0.90560000  0.65690000  1.0
  O2-  O1  1  0.86960000  0.90560000  0.65690000  1.0
  O2-  O1  1  0.02070000  0.73920000  0.15690000  1.0
  O2-  O1  1  0.52070000  0.73920000  0.15690000  1.0
  O2-  O1  1  0.02070000  0.73920000  0.65690000  1.0
  O2-  O1  1  0.52070000  0.73920000  0.65690000  1.0
  O2-  O1  1  0.45280000  0.04140000  0.15690000  1.0
  O2-  O1  1  0.95280000  0.04140000  0.15690000  1.0
  O2-  O1  1  0.45280000  0.04140000  0.65690000  1.0
  O2-  O1  1  0.95280000  0.04140000  0.65690000  1.0
  O2-  O1  1  0.02070000  0.31380000  0.45280000  1.0
  O2-  O1  1  0.52070000  0.31380000  0.45280000  1.0
  O2-  O1  1  0.02070000  0.31380000  0.95280000  1.0
  O2-  O1  1  0.52070000  0.31380000  0.95280000  1.0
  O2-  O1  1  0.45280000  0.31380000  0.36960000  1.0
  O2-  O1  1  0.95280000  0.31380000  0.36960000  1.0
  O2-  O1  1  0.45280000  0.31380000  0.86960000  1.0
  O2-  O1  1  0.95280000  0.31380000  0.86960000  1.0
  O2-  O1  1  0.36960000  0.31380000  0.02070000  1.0
  O2-  O1  1  0.86960000  0.31380000  0.02070000  1.0
  O2-  O1  1  0.36960000  0.31380000  0.52070000  1.0
  O2-  O1  1  0.86960000  0.31380000  0.52070000  1.0
  O2-  O1  1  0.45280000  0.73920000  0.02070000  1.0
  O2-  O1  1  0.95280000  0.73920000  0.02070000  1.0
  O2-  O1  1  0.45280000  0.73920000  0.52070000  1.0
  O2-  O1  1  0.95280000  0.73920000  0.52070000  1.0
  O2-  O1  1  0.36960000  0.04140000  0.45280000  1.0
  O2-  O1  1  0.86960000  0.04140000  0.45280000  1.0
  O2-  O1  1  0.36960000  0.04140000  0.95280000  1.0
  O2-  O1  1  0.86960000  0.04140000  0.95280000  1.0
  O2-  O1  1  0.02070000  0.90560000  0.36960000  1.0
  O2-  O1  1  0.52070000  0.90560000  0.36960000  1.0
  O2-  O1  1  0.02070000  0.90560000  0.86960000  1.0
  O2-  O1  1  0.52070000  0.90560000  0.86960000  1.0
