# generated using pymatgen
data_Li3SbS4
_symmetry_space_group_name_H-M   'P 1'
_cell_length_a   12.75978000
_cell_length_b   23.89650000
_cell_length_c   13.68798000
_cell_angle_alpha   90.00000000
_cell_angle_beta   90.00000000
_cell_angle_gamma   90.00000000
_symmetry_Int_Tables_number   1
_chemical_formula_structural   Li3SbS4
_chemical_formula_sum   'Li72 Sb24 S96'
_cell_volume   4173.65786667
_cell_formula_units_Z   24
loop_
 _symmetry_equiv_pos_site_id
 _symmetry_equiv_pos_as_xyz
  1  'x, y, z'
loop_
 _atom_type_symbol
 _atom_type_oxidation_number
  Li+  1.0
  Sb5+  5.0
  S2-  -2.0
loop_
 _atom_site_type_symbol
 _atom_site_label
 _atom_site_symmetry_multiplicity
 _atom_site_fract_x
 _atom_site_fract_y
 _atom_site_fract_z
 _atom_site_occupancy
  Li+  Li0  1  0.24381878  0.74985165  0.33734960  1.0
  Li+  Li1  1  0.24710000  0.41800000  0.33680000  1.0
  Li+  Li2  1  0.24710000  0.08466667  0.33680000  1.0
  Li+  Li3  1  0.24330538  0.75044542  0.83804233  1.0
  Li+  Li4  1  0.25344610  0.41686081  0.83479209  1.0
  Li+  Li5  1  0.24710000  0.08466667  0.83680000  1.0
  Li+  Li6  1  0.74710000  0.75133333  0.33680000  1.0
  Li+  Li7  1  0.74710000  0.41800000  0.33680000  1.0
  Li+  Li8  1  0.74812232  0.08560195  0.33980672  1.0
  Li+  Li9  1  0.74779070  0.75069259  0.83779382  1.0
  Li+  Li10  1  0.74710000  0.41800000  0.83680000  1.0
  Li+  Li11  1  0.74710000  0.08466667  0.83680000  1.0
  Li+  Li12  1  0.49710000  0.74866667  0.66320000  1.0
  Li+  Li13  1  0.49710000  0.41533333  0.66320000  1.0
  Li+  Li14  1  0.49688551  0.08020842  0.66035149  1.0
  Li+  Li15  1  0.49710000  0.74866667  0.16320000  1.0
  Li+  Li16  1  0.49710000  0.41533333  0.16320000  1.0
  Li+  Li17  1  0.49710000  0.08200000  0.16320000  1.0
  Li+  Li18  1  0.99710000  0.74866667  0.66320000  1.0
  Li+  Li19  1  0.99710000  0.41533333  0.66320000  1.0
  Li+  Li20  1  0.99710000  0.08200000  0.66320000  1.0
  Li+  Li21  1  0.00068790  0.74748648  0.16456027  1.0
  Li+  Li22  1  0.00086088  0.41267468  0.16268499  1.0
  Li+  Li23  1  0.99710000  0.08200000  0.16320000  1.0
  Li+  Li24  1  0.49710000  0.91800000  0.66320000  1.0
  Li+  Li25  1  0.49710000  0.58466667  0.66320000  1.0
  Li+  Li26  1  0.49710000  0.25133333  0.66320000  1.0
  Li+  Li27  1  0.49710000  0.91800000  0.16320000  1.0
  Li+  Li28  1  0.49710000  0.58466667  0.16320000  1.0
  Li+  Li29  1  0.49710000  0.25133333  0.16320000  1.0
  Li+  Li30  1  0.99710000  0.91800000  0.66320000  1.0
  Li+  Li31  1  0.99710000  0.58466667  0.66320000  1.0
  Li+  Li32  1  0.99710000  0.25133333  0.66320000  1.0
  Li+  Li33  1  0.99710000  0.91800000  0.16320000  1.0
  Li+  Li34  1  0.99710000  0.58466667  0.16320000  1.0
  Li+  Li35  1  0.99710000  0.25133333  0.16320000  1.0
  Li+  Li36  1  0.24710000  0.91533333  0.33680000  1.0
  Li+  Li37  1  0.25019996  0.58471770  0.33745043  1.0
  Li+  Li38  1  0.24710000  0.24866667  0.33680000  1.0
  Li+  Li39  1  0.24951017  0.91972083  0.83475399  1.0
  Li+  Li40  1  0.24710000  0.58200000  0.83680000  1.0
  Li+  Li41  1  0.24710000  0.24866667  0.83680000  1.0
  Li+  Li42  1  0.74710000  0.91533333  0.33680000  1.0
  Li+  Li43  1  0.74537828  0.58418808  0.33615953  1.0
  Li+  Li44  1  0.74710000  0.24866667  0.33680000  1.0
  Li+  Li45  1  0.74851741  0.91861165  0.83346315  1.0
  Li+  Li46  1  0.74710000  0.58200000  0.83680000  1.0
  Li+  Li47  1  0.74710000  0.24866667  0.83680000  1.0
  Li+  Li48  1  0.24531620  0.99895176  0.57530844  1.0
  Li+  Li49  1  0.24600000  0.66666667  0.57705000  1.0
  Li+  Li50  1  0.24643007  0.33492921  0.57610711  1.0
  Li+  Li51  1  0.24600000  0.00000000  0.07705000  1.0
  Li+  Li52  1  0.24600000  0.66666667  0.07705000  1.0
  Li+  Li53  1  0.24600000  0.33333333  0.07705000  1.0
  Li+  Li54  1  0.74092361  0.99564084  0.57527294  1.0
  Li+  Li55  1  0.74600000  0.66666667  0.57705000  1.0
  Li+  Li56  1  0.74600000  0.33333333  0.57705000  1.0
  Li+  Li57  1  0.74600000  0.00000000  0.07705000  1.0
  Li+  Li58  1  0.74600000  0.66666667  0.07705000  1.0
  Li+  Li59  1  0.74600000  0.33333333  0.07705000  1.0
  Li+  Li60  1  0.49600000  0.83333333  0.42295000  1.0
  Li+  Li61  1  0.49600000  0.50000000  0.42295000  1.0
  Li+  Li62  1  0.49600000  0.16666667  0.42295000  1.0
  Li+  Li63  1  0.49600000  0.83333333  0.92295000  1.0
  Li+  Li64  1  0.49600000  0.50000000  0.92295000  1.0
  Li+  Li65  1  0.49600000  0.16666667  0.92295000  1.0
  Li+  Li66  1  0.99600000  0.83333333  0.42295000  1.0
  Li+  Li67  1  0.99600000  0.50000000  0.42295000  1.0
  Li+  Li68  1  0.99777841  0.17009584  0.41882332  1.0
  Li+  Li69  1  0.99450935  0.83482031  0.92129772  1.0
  Li+  Li70  1  0.99600000  0.50000000  0.92295000  1.0
  Li+  Li71  1  0.99600000  0.16666667  0.92295000  1.0
  Sb5+  Sb72  1  0.50000000  0.00000000  0.41380000  1.0
  Sb5+  Sb73  1  0.50000000  0.66666667  0.41380000  1.0
  Sb5+  Sb74  1  0.50000000  0.33333333  0.41380000  1.0
  Sb5+  Sb75  1  0.50205609  0.00017620  0.91174109  1.0
  Sb5+  Sb76  1  0.49805186  0.66186030  0.91138870  1.0
  Sb5+  Sb77  1  0.50000000  0.33333333  0.91380000  1.0
  Sb5+  Sb78  1  0.99931744  0.99759370  0.40836544  1.0
  Sb5+  Sb79  1  0.00000000  0.66666667  0.41380000  1.0
  Sb5+  Sb80  1  0.00000000  0.33333333  0.41380000  1.0
  Sb5+  Sb81  1  0.00000000  0.00000000  0.91380000  1.0
  Sb5+  Sb82  1  0.00096296  0.66574392  0.91588406  1.0
  Sb5+  Sb83  1  0.00000000  0.33333333  0.91380000  1.0
  Sb5+  Sb84  1  0.25000000  0.83333333  0.58620000  1.0
  Sb5+  Sb85  1  0.24853455  0.49679067  0.58928206  1.0
  Sb5+  Sb86  1  0.25000000  0.16666667  0.58620000  1.0
  Sb5+  Sb87  1  0.24861400  0.83082121  0.08090644  1.0
  Sb5+  Sb88  1  0.25000000  0.50000000  0.08620000  1.0
  Sb5+  Sb89  1  0.25000000  0.16666667  0.08620000  1.0
  Sb5+  Sb90  1  0.75000000  0.83333333  0.58620000  1.0
  Sb5+  Sb91  1  0.75000000  0.50000000  0.58620000  1.0
  Sb5+  Sb92  1  0.75000000  0.16666667  0.58620000  1.0
  Sb5+  Sb93  1  0.75000000  0.83333333  0.08620000  1.0
  Sb5+  Sb94  1  0.75000000  0.50000000  0.08620000  1.0
  Sb5+  Sb95  1  0.74971198  0.16752087  0.08312227  1.0
  S2-  S96  1  0.44040000  0.74663333  0.33390000  1.0
  S2-  S97  1  0.44040000  0.41330000  0.33390000  1.0
  S2-  S98  1  0.44137912  0.07815801  0.33264563  1.0
  S2-  S99  1  0.44040000  0.74663333  0.83390000  1.0
  S2-  S100  1  0.44040000  0.41330000  0.83390000  1.0
  S2-  S101  1  0.44040000  0.07996667  0.83390000  1.0
  S2-  S102  1  0.94040000  0.74663333  0.33390000  1.0
  S2-  S103  1  0.94040000  0.41330000  0.33390000  1.0
  S2-  S104  1  0.94040000  0.07996667  0.33390000  1.0
  S2-  S105  1  0.94040000  0.74663333  0.83390000  1.0
  S2-  S106  1  0.94309064  0.41340185  0.83219250  1.0
  S2-  S107  1  0.94040000  0.07996667  0.83390000  1.0
  S2-  S108  1  0.19040000  0.75336667  0.66610000  1.0
  S2-  S109  1  0.19040000  0.42003333  0.66610000  1.0
  S2-  S110  1  0.19040000  0.08670000  0.66610000  1.0
  S2-  S111  1  0.19040000  0.75336667  0.16610000  1.0
  S2-  S112  1  0.19040000  0.42003333  0.16610000  1.0
  S2-  S113  1  0.19040000  0.08670000  0.16610000  1.0
  S2-  S114  1  0.69040000  0.75336667  0.66610000  1.0
  S2-  S115  1  0.69040000  0.42003333  0.66610000  1.0
  S2-  S116  1  0.69040000  0.08670000  0.66610000  1.0
  S2-  S117  1  0.69040000  0.75336667  0.16610000  1.0
  S2-  S118  1  0.69040000  0.42003333  0.16610000  1.0
  S2-  S119  1  0.68767446  0.09054907  0.16547162  1.0
  S2-  S120  1  0.18510673  0.91645686  0.66251589  1.0
  S2-  S121  1  0.19040000  0.57996667  0.66610000  1.0
  S2-  S122  1  0.19040000  0.24663333  0.66610000  1.0
  S2-  S123  1  0.19040000  0.91330000  0.16610000  1.0
  S2-  S124  1  0.19040000  0.57996667  0.16610000  1.0
  S2-  S125  1  0.19040000  0.24663333  0.16610000  1.0
  S2-  S126  1  0.69040000  0.91330000  0.66610000  1.0
  S2-  S127  1  0.69040000  0.57996667  0.66610000  1.0
  S2-  S128  1  0.69040000  0.24663333  0.66610000  1.0
  S2-  S129  1  0.69040000  0.91330000  0.16610000  1.0
  S2-  S130  1  0.69040000  0.57996667  0.16610000  1.0
  S2-  S131  1  0.69040000  0.24663333  0.16610000  1.0
  S2-  S132  1  0.43545401  0.92397677  0.33513980  1.0
  S2-  S133  1  0.44040000  0.58670000  0.33390000  1.0
  S2-  S134  1  0.44040000  0.25336667  0.33390000  1.0
  S2-  S135  1  0.43952938  0.92023692  0.83611098  1.0
  S2-  S136  1  0.44040000  0.58670000  0.83390000  1.0
  S2-  S137  1  0.44040000  0.25336667  0.83390000  1.0
  S2-  S138  1  0.94040000  0.92003333  0.33390000  1.0
  S2-  S139  1  0.94040000  0.58670000  0.33390000  1.0
  S2-  S140  1  0.94092550  0.25433094  0.33089361  1.0
  S2-  S141  1  0.94040000  0.92003333  0.83390000  1.0
  S2-  S142  1  0.94151870  0.58471511  0.83235308  1.0
  S2-  S143  1  0.94040000  0.25336667  0.83390000  1.0
  S2-  S144  1  0.43975000  0.00000000  0.57355000  1.0
  S2-  S145  1  0.44848351  0.66136973  0.57647594  1.0
  S2-  S146  1  0.43975000  0.33333333  0.57355000  1.0
  S2-  S147  1  0.43975000  0.00000000  0.07355000  1.0
  S2-  S148  1  0.43885981  0.66370860  0.07791186  1.0
  S2-  S149  1  0.43975000  0.33333333  0.07355000  1.0
  S2-  S150  1  0.93791234  0.99725733  0.57368892  1.0
  S2-  S151  1  0.93975000  0.66666667  0.57355000  1.0
  S2-  S152  1  0.93975000  0.33333333  0.57355000  1.0
  S2-  S153  1  0.94196661  0.99838130  0.07232759  1.0
  S2-  S154  1  0.94047959  0.66609870  0.07797019  1.0
  S2-  S155  1  0.93975000  0.33333333  0.07355000  1.0
  S2-  S156  1  0.18760577  0.83288663  0.42396584  1.0
  S2-  S157  1  0.19351287  0.49875139  0.42635460  1.0
  S2-  S158  1  0.18975000  0.16666667  0.42645000  1.0
  S2-  S159  1  0.18960540  0.83432001  0.92707308  1.0
  S2-  S160  1  0.18975000  0.50000000  0.92645000  1.0
  S2-  S161  1  0.18955275  0.16678059  0.92357252  1.0
  S2-  S162  1  0.68975000  0.83333333  0.42645000  1.0
  S2-  S163  1  0.68975000  0.50000000  0.42645000  1.0
  S2-  S164  1  0.68975000  0.16666667  0.42645000  1.0
  S2-  S165  1  0.68890283  0.83470672  0.92707020  1.0
  S2-  S166  1  0.68975000  0.50000000  0.92645000  1.0
  S2-  S167  1  0.68922772  0.16540609  0.92950827  1.0
  S2-  S168  1  0.18426287  0.99903640  0.41254052  1.0
  S2-  S169  1  0.18290000  0.66666667  0.40850000  1.0
  S2-  S170  1  0.18269537  0.33327338  0.40528390  1.0
  S2-  S171  1  0.18290000  0.00000000  0.90850000  1.0
  S2-  S172  1  0.18290000  0.66666667  0.90850000  1.0
  S2-  S173  1  0.18290000  0.33333333  0.90850000  1.0
  S2-  S174  1  0.68290000  0.00000000  0.40850000  1.0
  S2-  S175  1  0.68290000  0.66666667  0.40850000  1.0
  S2-  S176  1  0.68290000  0.33333333  0.40850000  1.0
  S2-  S177  1  0.68290000  0.00000000  0.90850000  1.0
  S2-  S178  1  0.67884797  0.66716364  0.90673102  1.0
  S2-  S179  1  0.68290000  0.33333333  0.90850000  1.0
  S2-  S180  1  0.43290000  0.83333333  0.59150000  1.0
  S2-  S181  1  0.43290000  0.50000000  0.59150000  1.0
  S2-  S182  1  0.43290000  0.16666667  0.59150000  1.0
  S2-  S183  1  0.42947892  0.83755043  0.09444814  1.0
  S2-  S184  1  0.43290000  0.50000000  0.09150000  1.0
  S2-  S185  1  0.43259192  0.16522381  0.09212419  1.0
  S2-  S186  1  0.93290000  0.83333333  0.59150000  1.0
  S2-  S187  1  0.93290000  0.50000000  0.59150000  1.0
  S2-  S188  1  0.93290000  0.16666667  0.59150000  1.0
  S2-  S189  1  0.93290000  0.83333333  0.09150000  1.0
  S2-  S190  1  0.93290000  0.50000000  0.09150000  1.0
  S2-  S191  1  0.93290000  0.16666667  0.09150000  1.0
