# generated using pymatgen
data_Li3SbS4
_symmetry_space_group_name_H-M   'P 1'
_cell_length_a   13.58434567
_cell_length_b   12.66317325
_cell_length_c   23.71557500
_cell_angle_alpha   90.00000000
_cell_angle_beta   90.00000000
_cell_angle_gamma   90.00000000
_symmetry_Int_Tables_number   1
_chemical_formula_structural   Li3SbS4
_chemical_formula_sum   'Li72 Sb24 S96'
_cell_volume   4079.57509403
_cell_formula_units_Z   24
loop_
 _symmetry_equiv_pos_site_id
 _symmetry_equiv_pos_as_xyz
  1  'x, y, z'
loop_
 _atom_type_symbol
 _atom_type_oxidation_number
  Li+  1.0
  Sb5+  5.0
  S2-  -2.0
loop_
 _atom_site_type_symbol
 _atom_site_label
 _atom_site_symmetry_multiplicity
 _atom_site_fract_x
 _atom_site_fract_y
 _atom_site_fract_z
 _atom_site_occupancy
  Li+  Li0  1  0.58680000  0.41956667  0.24866667  1.0
  Li+  Li1  1  0.58680000  0.41956667  0.58200000  1.0
  Li+  Li2  1  0.58680000  0.41956667  0.91533333  1.0
  Li+  Li3  1  0.08680000  0.41956667  0.24866667  1.0
  Li+  Li4  1  0.08680000  0.41956667  0.58200000  1.0
  Li+  Li5  1  0.08680000  0.41956667  0.91533333  1.0
  Li+  Li6  1  0.58680000  0.91956667  0.24866667  1.0
  Li+  Li7  1  0.58680000  0.91956667  0.58200000  1.0
  Li+  Li8  1  0.58680000  0.91956667  0.91533333  1.0
  Li+  Li9  1  0.08680000  0.91956667  0.24866667  1.0
  Li+  Li10  1  0.08680000  0.91956667  0.58200000  1.0
  Li+  Li11  1  0.08680000  0.91956667  0.91533333  1.0
  Li+  Li12  1  0.91320000  0.16956667  0.25133333  1.0
  Li+  Li13  1  0.91320000  0.16956667  0.58466667  1.0
  Li+  Li14  1  0.91320000  0.16956667  0.91800000  1.0
  Li+  Li15  1  0.41320000  0.16956667  0.25133333  1.0
  Li+  Li16  1  0.41320000  0.16956667  0.58466667  1.0
  Li+  Li17  1  0.41320000  0.16956667  0.91800000  1.0
  Li+  Li18  1  0.91320000  0.66956667  0.25133333  1.0
  Li+  Li19  1  0.91320000  0.66956667  0.58466667  1.0
  Li+  Li20  1  0.91320000  0.66956667  0.91800000  1.0
  Li+  Li21  1  0.41320000  0.66956667  0.25133333  1.0
  Li+  Li22  1  0.41320000  0.66956667  0.58466667  1.0
  Li+  Li23  1  0.41320000  0.66956667  0.91800000  1.0
  Li+  Li24  1  0.91320000  0.16956667  0.08200000  1.0
  Li+  Li25  1  0.91320000  0.16956667  0.41533333  1.0
  Li+  Li26  1  0.91320000  0.16956667  0.74866667  1.0
  Li+  Li27  1  0.41320000  0.16956667  0.08200000  1.0
  Li+  Li28  1  0.41320000  0.16956667  0.41533333  1.0
  Li+  Li29  1  0.41320000  0.16956667  0.74866667  1.0
  Li+  Li30  1  0.91320000  0.66956667  0.08200000  1.0
  Li+  Li31  1  0.91320000  0.66956667  0.41533333  1.0
  Li+  Li32  1  0.91320000  0.66956667  0.74866667  1.0
  Li+  Li33  1  0.41320000  0.66956667  0.08200000  1.0
  Li+  Li34  1  0.41320000  0.66956667  0.41533333  1.0
  Li+  Li35  1  0.41320000  0.66956667  0.74866667  1.0
  Li+  Li36  1  0.58680000  0.41956667  0.08466667  1.0
  Li+  Li37  1  0.58680000  0.41956667  0.41800000  1.0
  Li+  Li38  1  0.58680000  0.41956667  0.75133333  1.0
  Li+  Li39  1  0.08680000  0.41956667  0.08466667  1.0
  Li+  Li40  1  0.08680000  0.41956667  0.41800000  1.0
  Li+  Li41  1  0.08680000  0.41956667  0.75133333  1.0
  Li+  Li42  1  0.58680000  0.91956667  0.08466667  1.0
  Li+  Li43  1  0.58680000  0.91956667  0.41800000  1.0
  Li+  Li44  1  0.58680000  0.91956667  0.75133333  1.0
  Li+  Li45  1  0.08680000  0.91956667  0.08466667  1.0
  Li+  Li46  1  0.08680000  0.91956667  0.41800000  1.0
  Li+  Li47  1  0.08680000  0.91956667  0.75133333  1.0
  Li+  Li48  1  0.82705000  0.42066667  0.00000000  1.0
  Li+  Li49  1  0.82705000  0.42066667  0.33333333  1.0
  Li+  Li50  1  0.82705000  0.42066667  0.66666667  1.0
  Li+  Li51  1  0.32705000  0.42066667  0.00000000  1.0
  Li+  Li52  1  0.32705000  0.42066667  0.33333333  1.0
  Li+  Li53  1  0.32705000  0.42066667  0.66666667  1.0
  Li+  Li54  1  0.82705000  0.92066667  0.00000000  1.0
  Li+  Li55  1  0.82705000  0.92066667  0.33333333  1.0
  Li+  Li56  1  0.82705000  0.92066667  0.66666667  1.0
  Li+  Li57  1  0.32705000  0.92066667  0.00000000  1.0
  Li+  Li58  1  0.32705000  0.92066667  0.33333333  1.0
  Li+  Li59  1  0.32705000  0.92066667  0.66666667  1.0
  Li+  Li60  1  0.67295000  0.17066667  0.16666667  1.0
  Li+  Li61  1  0.67295000  0.17066667  0.50000000  1.0
  Li+  Li62  1  0.67295000  0.17066667  0.83333333  1.0
  Li+  Li63  1  0.17295000  0.17066667  0.16666667  1.0
  Li+  Li64  1  0.17295000  0.17066667  0.50000000  1.0
  Li+  Li65  1  0.17295000  0.17066667  0.83333333  1.0
  Li+  Li66  1  0.67295000  0.67066667  0.16666667  1.0
  Li+  Li67  1  0.67295000  0.67066667  0.50000000  1.0
  Li+  Li68  1  0.67295000  0.67066667  0.83333333  1.0
  Li+  Li69  1  0.17295000  0.67066667  0.16666667  1.0
  Li+  Li70  1  0.17295000  0.67066667  0.50000000  1.0
  Li+  Li71  1  0.17295000  0.67066667  0.83333333  1.0
  Sb5+  Sb72  1  0.66380000  0.16666667  0.00000000  1.0
  Sb5+  Sb73  1  0.66380000  0.16666667  0.33333333  1.0
  Sb5+  Sb74  1  0.66380000  0.16666667  0.66666667  1.0
  Sb5+  Sb75  1  0.16380000  0.16666667  0.00000000  1.0
  Sb5+  Sb76  1  0.16380000  0.16666667  0.33333333  1.0
  Sb5+  Sb77  1  0.16380000  0.16666667  0.66666667  1.0
  Sb5+  Sb78  1  0.66380000  0.66666667  0.00000000  1.0
  Sb5+  Sb79  1  0.66380000  0.66666667  0.33333333  1.0
  Sb5+  Sb80  1  0.66380000  0.66666667  0.66666667  1.0
  Sb5+  Sb81  1  0.16380000  0.66666667  0.00000000  1.0
  Sb5+  Sb82  1  0.16380000  0.66666667  0.33333333  1.0
  Sb5+  Sb83  1  0.16380000  0.66666667  0.66666667  1.0
  Sb5+  Sb84  1  0.83620000  0.41666667  0.16666667  1.0
  Sb5+  Sb85  1  0.83620000  0.41666667  0.50000000  1.0
  Sb5+  Sb86  1  0.83620000  0.41666667  0.83333333  1.0
  Sb5+  Sb87  1  0.33620000  0.41666667  0.16666667  1.0
  Sb5+  Sb88  1  0.33620000  0.41666667  0.50000000  1.0
  Sb5+  Sb89  1  0.33620000  0.41666667  0.83333333  1.0
  Sb5+  Sb90  1  0.83620000  0.91666667  0.16666667  1.0
  Sb5+  Sb91  1  0.83620000  0.91666667  0.50000000  1.0
  Sb5+  Sb92  1  0.83620000  0.91666667  0.83333333  1.0
  Sb5+  Sb93  1  0.33620000  0.91666667  0.16666667  1.0
  Sb5+  Sb94  1  0.33620000  0.91666667  0.50000000  1.0
  Sb5+  Sb95  1  0.33620000  0.91666667  0.83333333  1.0
  S2-  S96  1  0.58390000  0.22626667  0.25336667  1.0
  S2-  S97  1  0.58390000  0.22626667  0.58670000  1.0
  S2-  S98  1  0.58390000  0.22626667  0.92003333  1.0
  S2-  S99  1  0.08390000  0.22626667  0.25336667  1.0
  S2-  S100  1  0.08390000  0.22626667  0.58670000  1.0
  S2-  S101  1  0.08390000  0.22626667  0.92003333  1.0
  S2-  S102  1  0.58390000  0.72626667  0.25336667  1.0
  S2-  S103  1  0.58390000  0.72626667  0.58670000  1.0
  S2-  S104  1  0.58390000  0.72626667  0.92003333  1.0
  S2-  S105  1  0.08390000  0.72626667  0.25336667  1.0
  S2-  S106  1  0.08390000  0.72626667  0.58670000  1.0
  S2-  S107  1  0.08390000  0.72626667  0.92003333  1.0
  S2-  S108  1  0.91610000  0.47626667  0.24663333  1.0
  S2-  S109  1  0.91610000  0.47626667  0.57996667  1.0
  S2-  S110  1  0.91610000  0.47626667  0.91330000  1.0
  S2-  S111  1  0.41610000  0.47626667  0.24663333  1.0
  S2-  S112  1  0.41610000  0.47626667  0.57996667  1.0
  S2-  S113  1  0.41610000  0.47626667  0.91330000  1.0
  S2-  S114  1  0.91610000  0.97626667  0.24663333  1.0
  S2-  S115  1  0.91610000  0.97626667  0.57996667  1.0
  S2-  S116  1  0.91610000  0.97626667  0.91330000  1.0
  S2-  S117  1  0.41610000  0.97626667  0.24663333  1.0
  S2-  S118  1  0.41610000  0.97626667  0.57996667  1.0
  S2-  S119  1  0.41610000  0.97626667  0.91330000  1.0
  S2-  S120  1  0.91610000  0.47626667  0.08670000  1.0
  S2-  S121  1  0.91610000  0.47626667  0.42003333  1.0
  S2-  S122  1  0.91610000  0.47626667  0.75336667  1.0
  S2-  S123  1  0.41610000  0.47626667  0.08670000  1.0
  S2-  S124  1  0.41610000  0.47626667  0.42003333  1.0
  S2-  S125  1  0.41610000  0.47626667  0.75336667  1.0
  S2-  S126  1  0.91610000  0.97626667  0.08670000  1.0
  S2-  S127  1  0.91610000  0.97626667  0.42003333  1.0
  S2-  S128  1  0.91610000  0.97626667  0.75336667  1.0
  S2-  S129  1  0.41610000  0.97626667  0.08670000  1.0
  S2-  S130  1  0.41610000  0.97626667  0.42003333  1.0
  S2-  S131  1  0.41610000  0.97626667  0.75336667  1.0
  S2-  S132  1  0.58390000  0.22626667  0.07996667  1.0
  S2-  S133  1  0.58390000  0.22626667  0.41330000  1.0
  S2-  S134  1  0.58390000  0.22626667  0.74663333  1.0
  S2-  S135  1  0.08390000  0.22626667  0.07996667  1.0
  S2-  S136  1  0.08390000  0.22626667  0.41330000  1.0
  S2-  S137  1  0.08390000  0.22626667  0.74663333  1.0
  S2-  S138  1  0.58390000  0.72626667  0.07996667  1.0
  S2-  S139  1  0.58390000  0.72626667  0.41330000  1.0
  S2-  S140  1  0.58390000  0.72626667  0.74663333  1.0
  S2-  S141  1  0.08390000  0.72626667  0.07996667  1.0
  S2-  S142  1  0.08390000  0.72626667  0.41330000  1.0
  S2-  S143  1  0.08390000  0.72626667  0.74663333  1.0
  S2-  S144  1  0.82355000  0.22691667  0.00000000  1.0
  S2-  S145  1  0.82355000  0.22691667  0.33333333  1.0
  S2-  S146  1  0.82355000  0.22691667  0.66666667  1.0
  S2-  S147  1  0.32355000  0.22691667  0.00000000  1.0
  S2-  S148  1  0.32355000  0.22691667  0.33333333  1.0
  S2-  S149  1  0.32355000  0.22691667  0.66666667  1.0
  S2-  S150  1  0.82355000  0.72691667  0.00000000  1.0
  S2-  S151  1  0.82355000  0.72691667  0.33333333  1.0
  S2-  S152  1  0.82355000  0.72691667  0.66666667  1.0
  S2-  S153  1  0.32355000  0.72691667  0.00000000  1.0
  S2-  S154  1  0.32355000  0.72691667  0.33333333  1.0
  S2-  S155  1  0.32355000  0.72691667  0.66666667  1.0
  S2-  S156  1  0.67645000  0.47691667  0.16666667  1.0
  S2-  S157  1  0.67645000  0.47691667  0.50000000  1.0
  S2-  S158  1  0.67645000  0.47691667  0.83333333  1.0
  S2-  S159  1  0.17645000  0.47691667  0.16666667  1.0
  S2-  S160  1  0.17645000  0.47691667  0.50000000  1.0
  S2-  S161  1  0.17645000  0.47691667  0.83333333  1.0
  S2-  S162  1  0.67645000  0.97691667  0.16666667  1.0
  S2-  S163  1  0.67645000  0.97691667  0.50000000  1.0
  S2-  S164  1  0.67645000  0.97691667  0.83333333  1.0
  S2-  S165  1  0.17645000  0.97691667  0.16666667  1.0
  S2-  S166  1  0.17645000  0.97691667  0.50000000  1.0
  S2-  S167  1  0.17645000  0.97691667  0.83333333  1.0
  S2-  S168  1  0.65850000  0.48376667  0.00000000  1.0
  S2-  S169  1  0.65850000  0.48376667  0.33333333  1.0
  S2-  S170  1  0.65850000  0.48376667  0.66666667  1.0
  S2-  S171  1  0.15850000  0.48376667  0.00000000  1.0
  S2-  S172  1  0.15850000  0.48376667  0.33333333  1.0
  S2-  S173  1  0.15850000  0.48376667  0.66666667  1.0
  S2-  S174  1  0.65850000  0.98376667  0.00000000  1.0
  S2-  S175  1  0.65850000  0.98376667  0.33333333  1.0
  S2-  S176  1  0.65850000  0.98376667  0.66666667  1.0
  S2-  S177  1  0.15850000  0.98376667  0.00000000  1.0
  S2-  S178  1  0.15850000  0.98376667  0.33333333  1.0
  S2-  S179  1  0.15850000  0.98376667  0.66666667  1.0
  S2-  S180  1  0.84150000  0.23376667  0.16666667  1.0
  S2-  S181  1  0.84150000  0.23376667  0.50000000  1.0
  S2-  S182  1  0.84150000  0.23376667  0.83333333  1.0
  S2-  S183  1  0.34150000  0.23376667  0.16666667  1.0
  S2-  S184  1  0.34150000  0.23376667  0.50000000  1.0
  S2-  S185  1  0.34150000  0.23376667  0.83333333  1.0
  S2-  S186  1  0.84150000  0.73376667  0.16666667  1.0
  S2-  S187  1  0.84150000  0.73376667  0.50000000  1.0
  S2-  S188  1  0.84150000  0.73376667  0.83333333  1.0
  S2-  S189  1  0.34150000  0.73376667  0.16666667  1.0
  S2-  S190  1  0.34150000  0.73376667  0.50000000  1.0
  S2-  S191  1  0.34150000  0.73376667  0.83333333  1.0
