# generated using pymatgen
data_Li3SbS4
_symmetry_space_group_name_H-M   'P 1'
_cell_length_a   12.75978000
_cell_length_b   13.68798000
_cell_length_c   23.89650000
_cell_angle_alpha   90.00000000
_cell_angle_beta   90.00000000
_cell_angle_gamma   90.00000000
_symmetry_Int_Tables_number   1
_chemical_formula_structural   Li3SbS4
_chemical_formula_sum   'Li72 Sb24 S96'
_cell_volume   4173.65786667
_cell_formula_units_Z   24
loop_
 _symmetry_equiv_pos_site_id
 _symmetry_equiv_pos_as_xyz
  1  'x, y, z'
loop_
 _atom_type_symbol
 _atom_type_oxidation_number
  Li+  1.0
  Sb5+  5.0
  S2-  -2.0
loop_
 _atom_site_type_symbol
 _atom_site_label
 _atom_site_symmetry_multiplicity
 _atom_site_fract_x
 _atom_site_fract_y
 _atom_site_fract_z
 _atom_site_occupancy
  Li+  Li1  1  0.24710000  0.41320000  0.24866667  1.0
  Li+  Li1  1  0.24710000  0.41320000  0.58200000  1.0
  Li+  Li1  1  0.24710000  0.41320000  0.91533333  1.0
  Li+  Li1  1  0.24710000  0.91320000  0.24866667  1.0
  Li+  Li1  1  0.24710000  0.91320000  0.58200000  1.0
  Li+  Li1  1  0.24710000  0.91320000  0.91533333  1.0
  Li+  Li1  1  0.74710000  0.41320000  0.24866667  1.0
  Li+  Li1  1  0.74710000  0.41320000  0.58200000  1.0
  Li+  Li1  1  0.74710000  0.41320000  0.91533333  1.0
  Li+  Li1  1  0.74710000  0.91320000  0.24866667  1.0
  Li+  Li1  1  0.74710000  0.91320000  0.58200000  1.0
  Li+  Li1  1  0.74710000  0.91320000  0.91533333  1.0
  Li+  Li1  1  0.49710000  0.08680000  0.25133333  1.0
  Li+  Li1  1  0.49710000  0.08680000  0.58466667  1.0
  Li+  Li1  1  0.49710000  0.08680000  0.91800000  1.0
  Li+  Li1  1  0.49710000  0.58680000  0.25133333  1.0
  Li+  Li1  1  0.49710000  0.58680000  0.58466667  1.0
  Li+  Li1  1  0.49710000  0.58680000  0.91800000  1.0
  Li+  Li1  1  0.99710000  0.08680000  0.25133333  1.0
  Li+  Li1  1  0.99710000  0.08680000  0.58466667  1.0
  Li+  Li1  1  0.99710000  0.08680000  0.91800000  1.0
  Li+  Li1  1  0.99710000  0.58680000  0.25133333  1.0
  Li+  Li1  1  0.99710000  0.58680000  0.58466667  1.0
  Li+  Li1  1  0.99710000  0.58680000  0.91800000  1.0
  Li+  Li1  1  0.49710000  0.08680000  0.08200000  1.0
  Li+  Li1  1  0.49710000  0.08680000  0.41533333  1.0
  Li+  Li1  1  0.49710000  0.08680000  0.74866667  1.0
  Li+  Li1  1  0.49710000  0.58680000  0.08200000  1.0
  Li+  Li1  1  0.49710000  0.58680000  0.41533333  1.0
  Li+  Li1  1  0.49710000  0.58680000  0.74866667  1.0
  Li+  Li1  1  0.99710000  0.08680000  0.08200000  1.0
  Li+  Li1  1  0.99710000  0.08680000  0.41533333  1.0
  Li+  Li1  1  0.99710000  0.08680000  0.74866667  1.0
  Li+  Li1  1  0.99710000  0.58680000  0.08200000  1.0
  Li+  Li1  1  0.99710000  0.58680000  0.41533333  1.0
  Li+  Li1  1  0.99710000  0.58680000  0.74866667  1.0
  Li+  Li1  1  0.24710000  0.41320000  0.08466667  1.0
  Li+  Li1  1  0.24710000  0.41320000  0.41800000  1.0
  Li+  Li1  1  0.24710000  0.41320000  0.75133333  1.0
  Li+  Li1  1  0.24710000  0.91320000  0.08466667  1.0
  Li+  Li1  1  0.24710000  0.91320000  0.41800000  1.0
  Li+  Li1  1  0.24710000  0.91320000  0.75133333  1.0
  Li+  Li1  1  0.74710000  0.41320000  0.08466667  1.0
  Li+  Li1  1  0.74710000  0.41320000  0.41800000  1.0
  Li+  Li1  1  0.74710000  0.41320000  0.75133333  1.0
  Li+  Li1  1  0.74710000  0.91320000  0.08466667  1.0
  Li+  Li1  1  0.74710000  0.91320000  0.41800000  1.0
  Li+  Li1  1  0.74710000  0.91320000  0.75133333  1.0
  Li+  Li2  1  0.24600000  0.17295000  0.00000000  1.0
  Li+  Li2  1  0.24600000  0.17295000  0.33333333  1.0
  Li+  Li2  1  0.24600000  0.17295000  0.66666667  1.0
  Li+  Li2  1  0.24600000  0.67295000  0.00000000  1.0
  Li+  Li2  1  0.24600000  0.67295000  0.33333333  1.0
  Li+  Li2  1  0.24600000  0.67295000  0.66666667  1.0
  Li+  Li2  1  0.74600000  0.17295000  0.00000000  1.0
  Li+  Li2  1  0.74600000  0.17295000  0.33333333  1.0
  Li+  Li2  1  0.74600000  0.17295000  0.66666667  1.0
  Li+  Li2  1  0.74600000  0.67295000  0.00000000  1.0
  Li+  Li2  1  0.74600000  0.67295000  0.33333333  1.0
  Li+  Li2  1  0.74600000  0.67295000  0.66666667  1.0
  Li+  Li2  1  0.49600000  0.32705000  0.16666667  1.0
  Li+  Li2  1  0.49600000  0.32705000  0.50000000  1.0
  Li+  Li2  1  0.49600000  0.32705000  0.83333333  1.0
  Li+  Li2  1  0.49600000  0.82705000  0.16666667  1.0
  Li+  Li2  1  0.49600000  0.82705000  0.50000000  1.0
  Li+  Li2  1  0.49600000  0.82705000  0.83333333  1.0
  Li+  Li2  1  0.99600000  0.32705000  0.16666667  1.0
  Li+  Li2  1  0.99600000  0.32705000  0.50000000  1.0
  Li+  Li2  1  0.99600000  0.32705000  0.83333333  1.0
  Li+  Li2  1  0.99600000  0.82705000  0.16666667  1.0
  Li+  Li2  1  0.99600000  0.82705000  0.50000000  1.0
  Li+  Li2  1  0.99600000  0.82705000  0.83333333  1.0
  Sb5+  Sb24  1  0.50000000  0.33620000  0.00000000  1.0
  Sb5+  Sb24  1  0.50000000  0.33620000  0.33333333  1.0
  Sb5+  Sb24  1  0.50000000  0.33620000  0.66666667  1.0
  Sb5+  Sb25  1  0.50000000  0.83620000  0.00000000  1.0
  Sb5+  Sb25  1  0.50000000  0.83620000  0.33333333  1.0
  Sb5+  Sb25  1  0.50000000  0.83620000  0.66666667  1.0
  Sb5+  Sb26  1  0.00000000  0.33620000  0.00000000  1.0
  Sb5+  Sb26  1  0.00000000  0.33620000  0.33333333  1.0
  Sb5+  Sb26  1  0.00000000  0.33620000  0.66666667  1.0
  Sb5+  Sb27  1  0.00000000  0.83620000  0.00000000  1.0
  Sb5+  Sb27  1  0.00000000  0.83620000  0.33333333  1.0
  Sb5+  Sb27  1  0.00000000  0.83620000  0.66666667  1.0
  Sb5+  Sb28  1  0.25000000  0.16380000  0.16666667  1.0
  Sb5+  Sb28  1  0.25000000  0.16380000  0.50000000  1.0
  Sb5+  Sb28  1  0.25000000  0.16380000  0.83333333  1.0
  Sb5+  Sb29  1  0.25000000  0.66380000  0.16666667  1.0
  Sb5+  Sb29  1  0.25000000  0.66380000  0.50000000  1.0
  Sb5+  Sb29  1  0.25000000  0.66380000  0.83333333  1.0
  Sb5+  Sb30  1  0.75000000  0.16380000  0.16666667  1.0
  Sb5+  Sb30  1  0.75000000  0.16380000  0.50000000  1.0
  Sb5+  Sb30  1  0.75000000  0.16380000  0.83333333  1.0
  Sb5+  Sb31  1  0.75000000  0.66380000  0.16666667  1.0
  Sb5+  Sb31  1  0.75000000  0.66380000  0.50000000  1.0
  Sb5+  Sb31  1  0.75000000  0.66380000  0.83333333  1.0
  S2-  S1  1  0.44040000  0.41610000  0.25336667  1.0
  S2-  S1  1  0.44040000  0.41610000  0.58670000  1.0
  S2-  S1  1  0.44040000  0.41610000  0.92003333  1.0
  S2-  S1  1  0.44040000  0.91610000  0.25336667  1.0
  S2-  S1  1  0.44040000  0.91610000  0.58670000  1.0
  S2-  S1  1  0.44040000  0.91610000  0.92003333  1.0
  S2-  S1  1  0.94040000  0.41610000  0.25336667  1.0
  S2-  S1  1  0.94040000  0.41610000  0.58670000  1.0
  S2-  S1  1  0.94040000  0.41610000  0.92003333  1.0
  S2-  S1  1  0.94040000  0.91610000  0.25336667  1.0
  S2-  S1  1  0.94040000  0.91610000  0.58670000  1.0
  S2-  S1  1  0.94040000  0.91610000  0.92003333  1.0
  S2-  S1  1  0.19040000  0.08390000  0.24663333  1.0
  S2-  S1  1  0.19040000  0.08390000  0.57996667  1.0
  S2-  S1  1  0.19040000  0.08390000  0.91330000  1.0
  S2-  S1  1  0.19040000  0.58390000  0.24663333  1.0
  S2-  S1  1  0.19040000  0.58390000  0.57996667  1.0
  S2-  S1  1  0.19040000  0.58390000  0.91330000  1.0
  S2-  S1  1  0.69040000  0.08390000  0.24663333  1.0
  S2-  S1  1  0.69040000  0.08390000  0.57996667  1.0
  S2-  S1  1  0.69040000  0.08390000  0.91330000  1.0
  S2-  S1  1  0.69040000  0.58390000  0.24663333  1.0
  S2-  S1  1  0.69040000  0.58390000  0.57996667  1.0
  S2-  S1  1  0.69040000  0.58390000  0.91330000  1.0
  S2-  S1  1  0.19040000  0.08390000  0.08670000  1.0
  S2-  S1  1  0.19040000  0.08390000  0.42003333  1.0
  S2-  S1  1  0.19040000  0.08390000  0.75336667  1.0
  S2-  S1  1  0.19040000  0.58390000  0.08670000  1.0
  S2-  S1  1  0.19040000  0.58390000  0.42003333  1.0
  S2-  S1  1  0.19040000  0.58390000  0.75336667  1.0
  S2-  S1  1  0.69040000  0.08390000  0.08670000  1.0
  S2-  S1  1  0.69040000  0.08390000  0.42003333  1.0
  S2-  S1  1  0.69040000  0.08390000  0.75336667  1.0
  S2-  S1  1  0.69040000  0.58390000  0.08670000  1.0
  S2-  S1  1  0.69040000  0.58390000  0.42003333  1.0
  S2-  S1  1  0.69040000  0.58390000  0.75336667  1.0
  S2-  S1  1  0.44040000  0.41610000  0.07996667  1.0
  S2-  S1  1  0.44040000  0.41610000  0.41330000  1.0
  S2-  S1  1  0.44040000  0.41610000  0.74663333  1.0
  S2-  S1  1  0.44040000  0.91610000  0.07996667  1.0
  S2-  S1  1  0.44040000  0.91610000  0.41330000  1.0
  S2-  S1  1  0.44040000  0.91610000  0.74663333  1.0
  S2-  S1  1  0.94040000  0.41610000  0.07996667  1.0
  S2-  S1  1  0.94040000  0.41610000  0.41330000  1.0
  S2-  S1  1  0.94040000  0.41610000  0.74663333  1.0
  S2-  S1  1  0.94040000  0.91610000  0.07996667  1.0
  S2-  S1  1  0.94040000  0.91610000  0.41330000  1.0
  S2-  S1  1  0.94040000  0.91610000  0.74663333  1.0
  S2-  S2  1  0.43975000  0.17645000  0.00000000  1.0
  S2-  S2  1  0.43975000  0.17645000  0.33333333  1.0
  S2-  S2  1  0.43975000  0.17645000  0.66666667  1.0
  S2-  S2  1  0.43975000  0.67645000  0.00000000  1.0
  S2-  S2  1  0.43975000  0.67645000  0.33333333  1.0
  S2-  S2  1  0.43975000  0.67645000  0.66666667  1.0
  S2-  S2  1  0.93975000  0.17645000  0.00000000  1.0
  S2-  S2  1  0.93975000  0.17645000  0.33333333  1.0
  S2-  S2  1  0.93975000  0.17645000  0.66666667  1.0
  S2-  S2  1  0.93975000  0.67645000  0.00000000  1.0
  S2-  S2  1  0.93975000  0.67645000  0.33333333  1.0
  S2-  S2  1  0.93975000  0.67645000  0.66666667  1.0
  S2-  S2  1  0.18975000  0.32355000  0.16666667  1.0
  S2-  S2  1  0.18975000  0.32355000  0.50000000  1.0
  S2-  S2  1  0.18975000  0.32355000  0.83333333  1.0
  S2-  S2  1  0.18975000  0.82355000  0.16666667  1.0
  S2-  S2  1  0.18975000  0.82355000  0.50000000  1.0
  S2-  S2  1  0.18975000  0.82355000  0.83333333  1.0
  S2-  S2  1  0.68975000  0.32355000  0.16666667  1.0
  S2-  S2  1  0.68975000  0.32355000  0.50000000  1.0
  S2-  S2  1  0.68975000  0.32355000  0.83333333  1.0
  S2-  S2  1  0.68975000  0.82355000  0.16666667  1.0
  S2-  S2  1  0.68975000  0.82355000  0.50000000  1.0
  S2-  S2  1  0.68975000  0.82355000  0.83333333  1.0
  S2-  S3  1  0.18290000  0.34150000  0.00000000  1.0
  S2-  S3  1  0.18290000  0.34150000  0.33333333  1.0
  S2-  S3  1  0.18290000  0.34150000  0.66666667  1.0
  S2-  S3  1  0.18290000  0.84150000  0.00000000  1.0
  S2-  S3  1  0.18290000  0.84150000  0.33333333  1.0
  S2-  S3  1  0.18290000  0.84150000  0.66666667  1.0
  S2-  S3  1  0.68290000  0.34150000  0.00000000  1.0
  S2-  S3  1  0.68290000  0.34150000  0.33333333  1.0
  S2-  S3  1  0.68290000  0.34150000  0.66666667  1.0
  S2-  S3  1  0.68290000  0.84150000  0.00000000  1.0
  S2-  S3  1  0.68290000  0.84150000  0.33333333  1.0
  S2-  S3  1  0.68290000  0.84150000  0.66666667  1.0
  S2-  S3  1  0.43290000  0.15850000  0.16666667  1.0
  S2-  S3  1  0.43290000  0.15850000  0.50000000  1.0
  S2-  S3  1  0.43290000  0.15850000  0.83333333  1.0
  S2-  S3  1  0.43290000  0.65850000  0.16666667  1.0
  S2-  S3  1  0.43290000  0.65850000  0.50000000  1.0
  S2-  S3  1  0.43290000  0.65850000  0.83333333  1.0
  S2-  S3  1  0.93290000  0.15850000  0.16666667  1.0
  S2-  S3  1  0.93290000  0.15850000  0.50000000  1.0
  S2-  S3  1  0.93290000  0.15850000  0.83333333  1.0
  S2-  S3  1  0.93290000  0.65850000  0.16666667  1.0
  S2-  S3  1  0.93290000  0.65850000  0.50000000  1.0
  S2-  S3  1  0.93290000  0.65850000  0.83333333  1.0
