# generated using pymatgen
data_Li74Ge17W3O80
_symmetry_space_group_name_H-M   'P 1'
_cell_length_a   25.80450000
_cell_length_b   6.27400000
_cell_length_c   10.93800000
_cell_angle_alpha   90.00000000
_cell_angle_beta   90.00000000
_cell_angle_gamma   90.00000000
_symmetry_Int_Tables_number   1
_chemical_formula_structural   Li74Ge17W3O80
_chemical_formula_sum   'Li74 Ge17 W3 O80'
_cell_volume   1770.83412215
_cell_formula_units_Z   1
loop_
 _symmetry_equiv_pos_site_id
 _symmetry_equiv_pos_as_xyz
  1  'x, y, z'
loop_
 _atom_type_symbol
 _atom_type_oxidation_number
  Li+  1.0
  Ge4+  4.0
  W6+  6.0
  O2-  -2.0
loop_
 _atom_site_type_symbol
 _atom_site_label
 _atom_site_symmetry_multiplicity
 _atom_site_fract_x
 _atom_site_fract_y
 _atom_site_fract_z
 _atom_site_occupancy
  Li+  Li0  1  0.07360000  0.75000000  0.41600000  1.0
  Li+  Li1  1  0.27360000  0.75000000  0.41600000  1.0
  Li+  Li2  1  0.22640000  0.75000000  0.91600000  1.0
  Li+  Li3  1  0.42640000  0.75000000  0.91600000  1.0
  Li+  Li4  1  0.62640000  0.75000000  0.91600000  1.0
  Li+  Li5  1  0.82640000  0.75000000  0.91600000  1.0
  Li+  Li6  1  0.32640000  0.25000000  0.58400000  1.0
  Li+  Li7  1  0.57360000  0.25000000  0.08400000  1.0
  Li+  Li8  1  0.29240000  0.75000000  0.21500000  1.0
  Li+  Li9  1  0.69240000  0.75000000  0.21500000  1.0
  Li+  Li10  1  0.00760000  0.75000000  0.71500000  1.0
  Li+  Li11  1  0.77680000  0.56000000  0.46100000  1.0
  Li+  Li12  1  0.72320000  0.94000000  0.96100000  1.0
  Li+  Li13  1  0.92320000  0.94000000  0.96100000  1.0
  Li+  Li14  1  0.02320000  0.06000000  0.53900000  1.0
  Li+  Li15  1  0.22320000  0.06000000  0.53900000  1.0
  Li+  Li16  1  0.87680000  0.44000000  0.03900000  1.0
  Li+  Li17  1  0.42320000  0.44000000  0.53900000  1.0
  Li+  Li18  1  0.57680000  0.94000000  0.46100000  1.0
  Li+  Li19  1  0.12320000  0.56000000  0.96100000  1.0
  Li+  Li20  1  0.32320000  0.56000000  0.96100000  1.0
  Li+  Li21  1  0.52320000  0.56000000  0.96100000  1.0
  Li+  Li22  1  0.52320000  0.94800000  0.33200000  1.0
  Li+  Li23  1  0.92320000  0.94800000  0.33200000  1.0
  Li+  Li24  1  0.17680000  0.55200000  0.83200000  1.0
  Li+  Li25  1  0.07680000  0.44800000  0.66800000  1.0
  Li+  Li26  1  0.62320000  0.05200000  0.16800000  1.0
  Li+  Li27  1  0.47680000  0.05200000  0.66800000  1.0
  Li+  Li28  1  0.67680000  0.05200000  0.66800000  1.0
  Li+  Li29  1  0.87680000  0.05200000  0.66800000  1.0
  Li+  Li30  1  0.62320000  0.44800000  0.16800000  1.0
  Li+  Li31  1  0.12320000  0.55200000  0.33200000  1.0
  Li+  Li32  1  0.32320000  0.55200000  0.33200000  1.0
  Li+  Li33  1  0.92320000  0.55200000  0.33200000  1.0
  Li+  Li34  1  0.03360000  0.75000000  0.40800000  1.0
  Li+  Li35  1  0.23360000  0.75000000  0.40800000  1.0
  Li+  Li36  1  0.43360000  0.75000000  0.40800000  1.0
  Li+  Li37  1  0.63360000  0.75000000  0.40800000  1.0
  Li+  Li38  1  0.83360000  0.75000000  0.40800000  1.0
  Li+  Li39  1  0.86640000  0.75000000  0.90800000  1.0
  Li+  Li40  1  0.36640000  0.25000000  0.59200000  1.0
  Li+  Li41  1  0.56640000  0.25000000  0.59200000  1.0
  Li+  Li42  1  0.76640000  0.25000000  0.59200000  1.0
  Li+  Li43  1  0.96640000  0.25000000  0.59200000  1.0
  Li+  Li44  1  0.13360000  0.25000000  0.09200000  1.0
  Li+  Li45  1  0.73360000  0.25000000  0.09200000  1.0
  Li+  Li46  1  0.16500000  0.02400000  0.33200000  1.0
  Li+  Li47  1  0.36500000  0.02400000  0.33200000  1.0
  Li+  Li48  1  0.56500000  0.02400000  0.33200000  1.0
  Li+  Li49  1  0.13500000  0.47600000  0.83200000  1.0
  Li+  Li50  1  0.33500000  0.47600000  0.83200000  1.0
  Li+  Li51  1  0.53500000  0.47600000  0.83200000  1.0
  Li+  Li52  1  0.73500000  0.47600000  0.83200000  1.0
  Li+  Li53  1  0.93500000  0.47600000  0.83200000  1.0
  Li+  Li54  1  0.23500000  0.52400000  0.66800000  1.0
  Li+  Li55  1  0.63500000  0.52400000  0.66800000  1.0
  Li+  Li56  1  0.83500000  0.52400000  0.66800000  1.0
  Li+  Li57  1  0.06500000  0.97600000  0.16800000  1.0
  Li+  Li58  1  0.26500000  0.97600000  0.16800000  1.0
  Li+  Li59  1  0.46500000  0.97600000  0.16800000  1.0
  Li+  Li60  1  0.86500000  0.97600000  0.16800000  1.0
  Li+  Li61  1  0.23500000  0.97600000  0.66800000  1.0
  Li+  Li62  1  0.43500000  0.97600000  0.66800000  1.0
  Li+  Li63  1  0.63500000  0.97600000  0.66800000  1.0
  Li+  Li64  1  0.06500000  0.52400000  0.16800000  1.0
  Li+  Li65  1  0.26500000  0.52400000  0.16800000  1.0
  Li+  Li66  1  0.46500000  0.52400000  0.16800000  1.0
  Li+  Li67  1  0.56500000  0.47600000  0.33200000  1.0
  Li+  Li68  1  0.76500000  0.47600000  0.33200000  1.0
  Li+  Li69  1  0.96500000  0.47600000  0.33200000  1.0
  Li+  Li70  1  0.13500000  0.02400000  0.83200000  1.0
  Li+  Li71  1  0.33500000  0.02400000  0.83200000  1.0
  Li+  Li72  1  0.73500000  0.02400000  0.83200000  1.0
  Li+  Li73  1  0.93500000  0.02400000  0.83200000  1.0
  Ge4+  Ge74  1  0.16900000  0.75000000  0.08430000  1.0
  Ge4+  Ge75  1  0.36900000  0.75000000  0.08430000  1.0
  Ge4+  Ge76  1  0.76900000  0.75000000  0.08430000  1.0
  Ge4+  Ge77  1  0.96900000  0.75000000  0.08430000  1.0
  Ge4+  Ge78  1  0.13100000  0.75000000  0.58430000  1.0
  Ge4+  Ge79  1  0.33100000  0.75000000  0.58430000  1.0
  Ge4+  Ge80  1  0.53100000  0.75000000  0.58430000  1.0
  Ge4+  Ge81  1  0.73100000  0.75000000  0.58430000  1.0
  Ge4+  Ge82  1  0.93100000  0.75000000  0.58430000  1.0
  Ge4+  Ge83  1  0.03100000  0.25000000  0.91570000  1.0
  Ge4+  Ge84  1  0.23100000  0.25000000  0.91570000  1.0
  Ge4+  Ge85  1  0.63100000  0.25000000  0.91570000  1.0
  Ge4+  Ge86  1  0.83100000  0.25000000  0.91570000  1.0
  Ge4+  Ge87  1  0.06900000  0.25000000  0.41570000  1.0
  Ge4+  Ge88  1  0.26900000  0.25000000  0.41570000  1.0
  Ge4+  Ge89  1  0.46900000  0.25000000  0.41570000  1.0
  Ge4+  Ge90  1  0.66900000  0.25000000  0.41570000  1.0
  W6+  W91  1  0.56900000  0.75000000  0.08430000  1.0
  W6+  W92  1  0.43100000  0.25000000  0.91570000  1.0
  W6+  W93  1  0.86900000  0.25000000  0.41570000  1.0
  O2-  O1  1  0.14434000  0.97850000  0.16470000  1.0
  O2-  O1  1  0.34434000  0.97850000  0.16470000  1.0
  O2-  O1  1  0.54434000  0.97850000  0.16470000  1.0
  O2-  O1  1  0.74434000  0.97850000  0.16470000  1.0
  O2-  O1  1  0.94434000  0.97850000  0.16470000  1.0
  O2-  O1  1  0.15566000  0.52150000  0.66470000  1.0
  O2-  O1  1  0.35566000  0.52150000  0.66470000  1.0
  O2-  O1  1  0.55566000  0.52150000  0.66470000  1.0
  O2-  O1  1  0.75566000  0.52150000  0.66470000  1.0
  O2-  O1  1  0.95566000  0.52150000  0.66470000  1.0
  O2-  O1  1  0.05566000  0.47850000  0.83530000  1.0
  O2-  O1  1  0.25566000  0.47850000  0.83530000  1.0
  O2-  O1  1  0.45566000  0.47850000  0.83530000  1.0
  O2-  O1  1  0.65566000  0.47850000  0.83530000  1.0
  O2-  O1  1  0.85566000  0.47850000  0.83530000  1.0
  O2-  O1  1  0.04434000  0.02150000  0.33530000  1.0
  O2-  O1  1  0.24434000  0.02150000  0.33530000  1.0
  O2-  O1  1  0.44434000  0.02150000  0.33530000  1.0
  O2-  O1  1  0.64434000  0.02150000  0.33530000  1.0
  O2-  O1  1  0.84434000  0.02150000  0.33530000  1.0
  O2-  O1  1  0.05566000  0.02150000  0.83530000  1.0
  O2-  O1  1  0.25566000  0.02150000  0.83530000  1.0
  O2-  O1  1  0.45566000  0.02150000  0.83530000  1.0
  O2-  O1  1  0.65566000  0.02150000  0.83530000  1.0
  O2-  O1  1  0.85566000  0.02150000  0.83530000  1.0
  O2-  O1  1  0.04434000  0.47850000  0.33530000  1.0
  O2-  O1  1  0.24434000  0.47850000  0.33530000  1.0
  O2-  O1  1  0.44434000  0.47850000  0.33530000  1.0
  O2-  O1  1  0.64434000  0.47850000  0.33530000  1.0
  O2-  O1  1  0.84434000  0.47850000  0.33530000  1.0
  O2-  O1  1  0.14434000  0.52150000  0.16470000  1.0
  O2-  O1  1  0.34434000  0.52150000  0.16470000  1.0
  O2-  O1  1  0.54434000  0.52150000  0.16470000  1.0
  O2-  O1  1  0.74434000  0.52150000  0.16470000  1.0
  O2-  O1  1  0.94434000  0.52150000  0.16470000  1.0
  O2-  O1  1  0.15566000  0.97850000  0.66470000  1.0
  O2-  O1  1  0.35566000  0.97850000  0.66470000  1.0
  O2-  O1  1  0.55566000  0.97850000  0.66470000  1.0
  O2-  O1  1  0.75566000  0.97850000  0.66470000  1.0
  O2-  O1  1  0.95566000  0.97850000  0.66470000  1.0
  O2-  O2  1  0.03400000  0.75000000  0.08620000  1.0
  O2-  O2  1  0.23400000  0.75000000  0.08620000  1.0
  O2-  O2  1  0.43400000  0.75000000  0.08620000  1.0
  O2-  O2  1  0.63400000  0.75000000  0.08620000  1.0
  O2-  O2  1  0.83400000  0.75000000  0.08620000  1.0
  O2-  O2  1  0.06600000  0.75000000  0.58620000  1.0
  O2-  O2  1  0.26600000  0.75000000  0.58620000  1.0
  O2-  O2  1  0.46600000  0.75000000  0.58620000  1.0
  O2-  O2  1  0.66600000  0.75000000  0.58620000  1.0
  O2-  O2  1  0.86600000  0.75000000  0.58620000  1.0
  O2-  O2  1  0.16600000  0.25000000  0.91380000  1.0
  O2-  O2  1  0.36600000  0.25000000  0.91380000  1.0
  O2-  O2  1  0.56600000  0.25000000  0.91380000  1.0
  O2-  O2  1  0.76600000  0.25000000  0.91380000  1.0
  O2-  O2  1  0.96600000  0.25000000  0.91380000  1.0
  O2-  O2  1  0.13400000  0.25000000  0.41380000  1.0
  O2-  O2  1  0.33400000  0.25000000  0.41380000  1.0
  O2-  O2  1  0.53400000  0.25000000  0.41380000  1.0
  O2-  O2  1  0.73400000  0.25000000  0.41380000  1.0
  O2-  O2  1  0.93400000  0.25000000  0.41380000  1.0
  O2-  O3  1  0.15180000  0.75000000  0.43770000  1.0
  O2-  O3  1  0.35180000  0.75000000  0.43770000  1.0
  O2-  O3  1  0.55180000  0.75000000  0.43770000  1.0
  O2-  O3  1  0.75180000  0.75000000  0.43770000  1.0
  O2-  O3  1  0.95180000  0.75000000  0.43770000  1.0
  O2-  O3  1  0.14820000  0.75000000  0.93770000  1.0
  O2-  O3  1  0.34820000  0.75000000  0.93770000  1.0
  O2-  O3  1  0.54820000  0.75000000  0.93770000  1.0
  O2-  O3  1  0.74820000  0.75000000  0.93770000  1.0
  O2-  O3  1  0.94820000  0.75000000  0.93770000  1.0
  O2-  O3  1  0.04820000  0.25000000  0.56230000  1.0
  O2-  O3  1  0.24820000  0.25000000  0.56230000  1.0
  O2-  O3  1  0.44820000  0.25000000  0.56230000  1.0
  O2-  O3  1  0.64820000  0.25000000  0.56230000  1.0
  O2-  O3  1  0.84820000  0.25000000  0.56230000  1.0
  O2-  O3  1  0.05180000  0.25000000  0.06230000  1.0
  O2-  O3  1  0.25180000  0.25000000  0.06230000  1.0
  O2-  O3  1  0.45180000  0.25000000  0.06230000  1.0
  O2-  O3  1  0.65180000  0.25000000  0.06230000  1.0
  O2-  O3  1  0.85180000  0.25000000  0.06230000  1.0
