# generated using pymatgen
data_Li33Si5(PO8)5
_symmetry_space_group_name_H-M   'P 1'
_cell_length_a   25.02825000
_cell_length_b   10.58917000
_cell_length_c   6.11520000
_cell_angle_alpha   90.00000000
_cell_angle_beta   90.00000000
_cell_angle_gamma   90.00000000
_symmetry_Int_Tables_number   1
_chemical_formula_structural   Li33Si5(PO8)5
_chemical_formula_sum   'Li66 Si10 P10 O80'
_cell_volume   1620.70163531
_cell_formula_units_Z   2
loop_
 _symmetry_equiv_pos_site_id
 _symmetry_equiv_pos_as_xyz
  1  'x, y, z'
loop_
 _atom_type_symbol
 _atom_type_oxidation_number
  Li+  1.0
  Si4+  4.0
  P5+  5.0
  O2-  -2.0
loop_
 _atom_site_type_symbol
 _atom_site_label
 _atom_site_symmetry_multiplicity
 _atom_site_fract_x
 _atom_site_fract_y
 _atom_site_fract_z
 _atom_site_occupancy
  Li+  Li0  1  0.21100000  0.48200000  0.80100000  1.0
  Li+  Li1  1  0.10983520  0.01596472  0.69689033  1.0
  Li+  Li2  1  0.71403309  0.01777089  0.29958384  1.0
  Li+  Li3  1  0.91100000  0.01800000  0.30100000  1.0
  Li+  Li4  1  0.28900000  0.98200000  0.80100000  1.0
  Li+  Li5  1  0.37360000  0.15300000  0.21400000  1.0
  Li+  Li6  1  0.97360000  0.15300000  0.21400000  1.0
  Li+  Li7  1  0.12640000  0.65300000  0.78600000  1.0
  Li+  Li8  1  0.47394214  0.34661943  0.28860760  1.0
  Li+  Li9  1  0.02640000  0.84700000  0.28600000  1.0
  Li+  Li10  1  0.47360000  0.34700000  0.71400000  1.0
  Li+  Li11  1  0.57360000  0.15300000  0.78600000  1.0
  Li+  Li12  1  0.52640000  0.65300000  0.21400000  1.0
  Li+  Li13  1  0.06348000  0.07070000  0.00000000  1.0
  Li+  Li14  1  0.26348000  0.07070000  0.00000000  1.0
  Li+  Li15  1  0.46348000  0.07070000  0.00000000  1.0
  Li+  Li16  1  0.66348000  0.07070000  0.00000000  1.0
  Li+  Li17  1  0.86348000  0.07070000  0.00000000  1.0
  Li+  Li18  1  0.43791053  0.56872521  0.00368741  1.0
  Li+  Li19  1  0.63486532  0.57368682  0.99889453  1.0
  Li+  Li20  1  0.33652000  0.92930000  0.50000000  1.0
  Li+  Li21  1  0.53532041  0.93028091  0.50002556  1.0
  Li+  Li22  1  0.73652000  0.92930000  0.50000000  1.0
  Li+  Li23  1  0.16348000  0.42930000  0.50000000  1.0
  Li+  Li24  1  0.36348000  0.42930000  0.50000000  1.0
  Li+  Li25  1  0.56348000  0.42930000  0.50000000  1.0
  Li+  Li26  1  0.76348000  0.42930000  0.50000000  1.0
  Li+  Li27  1  0.96348000  0.42930000  0.50000000  1.0
  Li+  Li28  1  0.20300000  0.21100000  0.00000000  1.0
  Li+  Li29  1  0.80300000  0.21100000  0.00000000  1.0
  Li+  Li30  1  0.59764692  0.79279673  0.50059644  1.0
  Li+  Li31  1  0.10300000  0.28900000  0.50000000  1.0
  Li+  Li32  1  0.30001016  0.29398371  0.50292269  1.0
  Li+  Li33  1  0.70189877  0.28638320  0.49700870  1.0
  Li+  Li34  1  0.06218000  0.83740000  0.75320000  1.0
  Li+  Li35  1  0.46301166  0.83419625  0.75352533  1.0
  Li+  Li36  1  0.86228415  0.83865199  0.75206748  1.0
  Li+  Li37  1  0.03954000  0.33701765  0.24677067  1.0
  Li+  Li38  1  0.23977137  0.33890460  0.24898190  1.0
  Li+  Li39  1  0.43782000  0.33740000  0.24680000  1.0
  Li+  Li40  1  0.63782000  0.33740000  0.24680000  1.0
  Li+  Li41  1  0.83782000  0.33740000  0.24680000  1.0
  Li+  Li42  1  0.13782000  0.16260000  0.25320000  1.0
  Li+  Li43  1  0.54096210  0.16080278  0.24785974  1.0
  Li+  Li44  1  0.73873461  0.16208123  0.25098349  1.0
  Li+  Li45  1  0.93782000  0.16260000  0.25320000  1.0
  Li+  Li46  1  0.36218000  0.66260000  0.74680000  1.0
  Li+  Li47  1  0.56386659  0.66472398  0.74798399  1.0
  Li+  Li48  1  0.76218000  0.66260000  0.74680000  1.0
  Li+  Li49  1  0.96218000  0.66260000  0.74680000  1.0
  Li+  Li50  1  0.53782000  0.16260000  0.74680000  1.0
  Li+  Li51  1  0.73782000  0.16260000  0.74680000  1.0
  Li+  Li52  1  0.93782000  0.16260000  0.74680000  1.0
  Li+  Li53  1  0.16218000  0.66260000  0.25320000  1.0
  Li+  Li54  1  0.36218000  0.66260000  0.25320000  1.0
  Li+  Li55  1  0.55816705  0.66150061  0.25439148  1.0
  Li+  Li56  1  0.76218000  0.66260000  0.25320000  1.0
  Li+  Li57  1  0.96820177  0.66369756  0.25408065  1.0
  Li+  Li58  1  0.06218000  0.83740000  0.24680000  1.0
  Li+  Li59  1  0.26218000  0.83740000  0.24680000  1.0
  Li+  Li60  1  0.46702810  0.83524941  0.24401878  1.0
  Li+  Li61  1  0.86218000  0.83740000  0.24680000  1.0
  Li+  Li62  1  0.03782000  0.33740000  0.75320000  1.0
  Li+  Li63  1  0.23782000  0.33740000  0.75320000  1.0
  Li+  Li64  1  0.43782000  0.33740000  0.75320000  1.0
  Li+  Li65  1  0.83823570  0.33879714  0.75446021  1.0
  Si4+  Si66  1  0.36500000  0.91120000  0.00000000  1.0
  Si4+  Si67  1  0.76500000  0.91120000  0.00000000  1.0
  Si4+  Si68  1  0.96500000  0.91120000  0.00000000  1.0
  Si4+  Si69  1  0.33500000  0.41120000  0.00000000  1.0
  Si4+  Si70  1  0.53500000  0.41120000  0.00000000  1.0
  Si4+  Si71  1  0.03500000  0.08880000  0.50000000  1.0
  Si4+  Si72  1  0.43500000  0.08880000  0.50000000  1.0
  Si4+  Si73  1  0.83500000  0.08880000  0.50000000  1.0
  Si4+  Si74  1  0.46500000  0.58880000  0.50000000  1.0
  Si4+  Si75  1  0.66096761  0.58751764  0.49841100  1.0
  P5+  P76  1  0.16500000  0.91120000  0.00000000  1.0
  P5+  P77  1  0.56500000  0.91120000  0.00000000  1.0
  P5+  P78  1  0.13500000  0.41120000  0.00000000  1.0
  P5+  P79  1  0.73500000  0.41120000  0.00000000  1.0
  P5+  P80  1  0.93500000  0.41120000  0.00000000  1.0
  P5+  P81  1  0.23352603  0.08972559  0.49539878  1.0
  P5+  P82  1  0.63500000  0.08880000  0.50000000  1.0
  P5+  P83  1  0.06500000  0.58880000  0.50000000  1.0
  P5+  P84  1  0.26500000  0.58880000  0.50000000  1.0
  P5+  P85  1  0.86500000  0.58880000  0.50000000  1.0
  O2-  O86  1  0.14402000  0.84050000  0.78820000  1.0
  O2-  O87  1  0.34402000  0.84050000  0.78820000  1.0
  O2-  O88  1  0.54402000  0.84050000  0.78820000  1.0
  O2-  O89  1  0.74402000  0.84050000  0.78820000  1.0
  O2-  O90  1  0.94402000  0.84050000  0.78820000  1.0
  O2-  O91  1  0.15598000  0.34050000  0.21180000  1.0
  O2-  O92  1  0.35945498  0.33907685  0.21263948  1.0
  O2-  O93  1  0.55598000  0.34050000  0.21180000  1.0
  O2-  O94  1  0.75598000  0.34050000  0.21180000  1.0
  O2-  O95  1  0.95182973  0.33828343  0.21366120  1.0
  O2-  O96  1  0.05598000  0.15950000  0.28820000  1.0
  O2-  O97  1  0.25598000  0.15950000  0.28820000  1.0
  O2-  O98  1  0.45598000  0.15950000  0.28820000  1.0
  O2-  O99  1  0.65598000  0.15950000  0.28820000  1.0
  O2-  O100  1  0.85598000  0.15950000  0.28820000  1.0
  O2-  O101  1  0.04402000  0.65950000  0.71180000  1.0
  O2-  O102  1  0.24402000  0.65950000  0.71180000  1.0
  O2-  O103  1  0.44785228  0.65883394  0.71147904  1.0
  O2-  O104  1  0.64402325  0.66028496  0.70864168  1.0
  O2-  O105  1  0.84402000  0.65950000  0.71180000  1.0
  O2-  O106  1  0.05657139  0.16055745  0.70967912  1.0
  O2-  O107  1  0.25598000  0.15950000  0.71180000  1.0
  O2-  O108  1  0.45598000  0.15950000  0.71180000  1.0
  O2-  O109  1  0.65598000  0.15950000  0.71180000  1.0
  O2-  O110  1  0.85598000  0.15950000  0.71180000  1.0
  O2-  O111  1  0.04402000  0.65950000  0.28820000  1.0
  O2-  O112  1  0.24402000  0.65950000  0.28820000  1.0
  O2-  O113  1  0.44481835  0.65896801  0.28835949  1.0
  O2-  O114  1  0.64469749  0.66219041  0.28793897  1.0
  O2-  O115  1  0.84402000  0.65950000  0.28820000  1.0
  O2-  O116  1  0.14402000  0.84050000  0.21180000  1.0
  O2-  O117  1  0.34402000  0.84050000  0.21180000  1.0
  O2-  O118  1  0.54402000  0.84050000  0.21180000  1.0
  O2-  O119  1  0.74402000  0.84050000  0.21180000  1.0
  O2-  O120  1  0.94402000  0.84050000  0.21180000  1.0
  O2-  O121  1  0.15598000  0.34050000  0.78820000  1.0
  O2-  O122  1  0.35560753  0.33863210  0.79000715  1.0
  O2-  O123  1  0.55598000  0.34050000  0.78820000  1.0
  O2-  O124  1  0.75598000  0.34050000  0.78820000  1.0
  O2-  O125  1  0.95598000  0.34050000  0.78820000  1.0
  O2-  O126  1  0.15614000  0.55280000  0.00000000  1.0
  O2-  O127  1  0.35614000  0.55280000  0.00000000  1.0
  O2-  O128  1  0.55614000  0.55280000  0.00000000  1.0
  O2-  O129  1  0.75612292  0.55424871  0.00048172  1.0
  O2-  O130  1  0.95614000  0.55280000  0.00000000  1.0
  O2-  O131  1  0.14386000  0.05280000  0.00000000  1.0
  O2-  O132  1  0.34386000  0.05280000  0.00000000  1.0
  O2-  O133  1  0.54386000  0.05280000  0.00000000  1.0
  O2-  O134  1  0.74386000  0.05280000  0.00000000  1.0
  O2-  O135  1  0.94386000  0.05280000  0.00000000  1.0
  O2-  O136  1  0.04386000  0.44720000  0.50000000  1.0
  O2-  O137  1  0.24048326  0.44866114  0.50203299  1.0
  O2-  O138  1  0.44388730  0.44602057  0.49848761  1.0
  O2-  O139  1  0.64386000  0.44720000  0.50000000  1.0
  O2-  O140  1  0.84612596  0.44648456  0.50085761  1.0
  O2-  O141  1  0.05443023  0.94242745  0.50127309  1.0
  O2-  O142  1  0.25614000  0.94720000  0.50000000  1.0
  O2-  O143  1  0.45614000  0.94720000  0.50000000  1.0
  O2-  O144  1  0.65614000  0.94720000  0.50000000  1.0
  O2-  O145  1  0.85686657  0.94642729  0.50079925  1.0
  O2-  O146  1  0.02846000  0.91050000  0.00000000  1.0
  O2-  O147  1  0.22846000  0.91050000  0.00000000  1.0
  O2-  O148  1  0.42846000  0.91050000  0.00000000  1.0
  O2-  O149  1  0.62611256  0.90724197  0.00051653  1.0
  O2-  O150  1  0.82846000  0.91050000  0.00000000  1.0
  O2-  O151  1  0.07154000  0.41050000  0.00000000  1.0
  O2-  O152  1  0.27154000  0.41050000  0.00000000  1.0
  O2-  O153  1  0.47154000  0.41050000  0.00000000  1.0
  O2-  O154  1  0.67154000  0.41050000  0.00000000  1.0
  O2-  O155  1  0.87154000  0.41050000  0.00000000  1.0
  O2-  O156  1  0.17154000  0.08950000  0.50000000  1.0
  O2-  O157  1  0.37197539  0.09208867  0.49962997  1.0
  O2-  O158  1  0.57177049  0.08916863  0.49722142  1.0
  O2-  O159  1  0.77348509  0.09145250  0.50332771  1.0
  O2-  O160  1  0.96936885  0.08893231  0.49952710  1.0
  O2-  O161  1  0.12846000  0.58950000  0.50000000  1.0
  O2-  O162  1  0.32846000  0.58950000  0.50000000  1.0
  O2-  O163  1  0.52846000  0.58950000  0.50000000  1.0
  O2-  O164  1  0.72846000  0.58950000  0.50000000  1.0
  O2-  O165  1  0.92846000  0.58950000  0.50000000  1.0
