# generated using pymatgen
data_Li33Si5(PO8)5
_symmetry_space_group_name_H-M   'P 1'
_cell_length_a   6.11132214
_cell_length_b   25.01237871
_cell_length_c   10.58245504
_cell_angle_alpha   90.00000000
_cell_angle_beta   90.00000000
_cell_angle_gamma   90.00000000
_symmetry_Int_Tables_number   1
_chemical_formula_structural   Li33Si5(PO8)5
_chemical_formula_sum   'Li66 Si10 P10 O80'
_cell_volume   1617.62036027
_cell_formula_units_Z   2
loop_
 _symmetry_equiv_pos_site_id
 _symmetry_equiv_pos_as_xyz
  1  'x, y, z'
loop_
 _atom_type_symbol
 _atom_type_oxidation_number
  Li+  1.0
  Si4+  4.0
  P5+  5.0
  O2-  -2.0
loop_
 _atom_site_type_symbol
 _atom_site_label
 _atom_site_symmetry_multiplicity
 _atom_site_fract_x
 _atom_site_fract_y
 _atom_site_fract_z
 _atom_site_occupancy
  Li+  Li0  1  0.05100000  0.45566667  0.51800000  1.0
  Li+  Li1  1  0.94900000  0.55566667  0.98200000  1.0
  Li+  Li2  1  0.55100000  0.95566667  0.98200000  1.0
  Li+  Li3  1  0.55100000  0.75566667  0.98200000  1.0
  Li+  Li4  1  0.05100000  0.37766667  0.01800000  1.0
  Li+  Li5  1  0.46400000  0.29306667  0.84700000  1.0
  Li+  Li6  1  0.46400000  0.69306667  0.84700000  1.0
  Li+  Li7  1  0.03600000  0.54026667  0.34700000  1.0
  Li+  Li8  1  0.53600000  0.19306667  0.65300000  1.0
  Li+  Li9  1  0.53600000  0.64026667  0.15300000  1.0
  Li+  Li10  1  0.96400000  0.19306667  0.65300000  1.0
  Li+  Li11  1  0.03600000  0.09306667  0.84700000  1.0
  Li+  Li12  1  0.46400000  0.14026667  0.34700000  1.0
  Li+  Li13  1  0.25000000  0.60318667  0.92930000  1.0
  Li+  Li14  1  0.25000000  0.40318667  0.92930000  1.0
  Li+  Li15  1  0.25000000  0.20318667  0.92930000  1.0
  Li+  Li16  1  0.25000000  0.00318667  0.92930000  1.0
  Li+  Li17  1  0.25000000  0.80318667  0.92930000  1.0
  Li+  Li18  1  0.25000000  0.23014667  0.42930000  1.0
  Li+  Li19  1  0.25000000  0.03014667  0.42930000  1.0
  Li+  Li20  1  0.75000000  0.33014667  0.07070000  1.0
  Li+  Li21  1  0.75000000  0.13014667  0.07070000  1.0
  Li+  Li22  1  0.75000000  0.93014667  0.07070000  1.0
  Li+  Li23  1  0.75000000  0.50318667  0.57070000  1.0
  Li+  Li24  1  0.75000000  0.30318667  0.57070000  1.0
  Li+  Li25  1  0.75000000  0.10318667  0.57070000  1.0
  Li+  Li26  1  0.75000000  0.90318667  0.57070000  1.0
  Li+  Li27  1  0.75000000  0.70318667  0.57070000  1.0
  Li+  Li28  1  0.25000000  0.46366667  0.78900000  1.0
  Li+  Li29  1  0.25000000  0.86366667  0.78900000  1.0
  Li+  Li30  1  0.75000000  0.06966667  0.21100000  1.0
  Li+  Li31  1  0.75000000  0.56366667  0.71100000  1.0
  Li+  Li32  1  0.75000000  0.36366667  0.71100000  1.0
  Li+  Li33  1  0.75000000  0.96366667  0.71100000  1.0
  Li+  Li34  1  0.00320000  0.60448667  0.16260000  1.0
  Li+  Li35  1  0.00320000  0.20448667  0.16260000  1.0
  Li+  Li36  1  0.00320000  0.80448667  0.16260000  1.0
  Li+  Li37  1  0.49680000  0.62884667  0.66260000  1.0
  Li+  Li38  1  0.49680000  0.42884667  0.66260000  1.0
  Li+  Li39  1  0.49680000  0.22884667  0.66260000  1.0
  Li+  Li40  1  0.49680000  0.02884667  0.66260000  1.0
  Li+  Li41  1  0.49680000  0.82884667  0.66260000  1.0
  Li+  Li42  1  0.50320000  0.52884667  0.83740000  1.0
  Li+  Li43  1  0.50320000  0.12884667  0.83740000  1.0
  Li+  Li44  1  0.50320000  0.92884667  0.83740000  1.0
  Li+  Li45  1  0.50320000  0.72884667  0.83740000  1.0
  Li+  Li46  1  0.99680000  0.30448667  0.33740000  1.0
  Li+  Li47  1  0.99680000  0.10448667  0.33740000  1.0
  Li+  Li48  1  0.99680000  0.90448667  0.33740000  1.0
  Li+  Li49  1  0.99680000  0.70448667  0.33740000  1.0
  Li+  Li50  1  0.99680000  0.12884667  0.83740000  1.0
  Li+  Li51  1  0.99680000  0.92884667  0.83740000  1.0
  Li+  Li52  1  0.99680000  0.72884667  0.83740000  1.0
  Li+  Li53  1  0.50320000  0.50448667  0.33740000  1.0
  Li+  Li54  1  0.50320000  0.30448667  0.33740000  1.0
  Li+  Li55  1  0.50320000  0.10448667  0.33740000  1.0
  Li+  Li56  1  0.50320000  0.90448667  0.33740000  1.0
  Li+  Li57  1  0.50320000  0.70448667  0.33740000  1.0
  Li+  Li58  1  0.49680000  0.60448667  0.16260000  1.0
  Li+  Li59  1  0.49680000  0.40448667  0.16260000  1.0
  Li+  Li60  1  0.49680000  0.20448667  0.16260000  1.0
  Li+  Li61  1  0.49680000  0.80448667  0.16260000  1.0
  Li+  Li62  1  0.00320000  0.62884667  0.66260000  1.0
  Li+  Li63  1  0.00320000  0.42884667  0.66260000  1.0
  Li+  Li64  1  0.00320000  0.22884667  0.66260000  1.0
  Li+  Li65  1  0.00320000  0.82884667  0.66260000  1.0
  Si4+  Si66  1  0.25000000  0.30166667  0.08880000  1.0
  Si4+  Si67  1  0.25000000  0.90166667  0.08880000  1.0
  Si4+  Si68  1  0.25000000  0.70166667  0.08880000  1.0
  Si4+  Si69  1  0.25000000  0.33166667  0.58880000  1.0
  Si4+  Si70  1  0.25000000  0.13166667  0.58880000  1.0
  Si4+  Si71  1  0.75000000  0.63166667  0.91120000  1.0
  Si4+  Si72  1  0.75000000  0.23166667  0.91120000  1.0
  Si4+  Si73  1  0.75000000  0.83166667  0.91120000  1.0
  Si4+  Si74  1  0.75000000  0.20166667  0.41120000  1.0
  Si4+  Si75  1  0.75000000  0.00166667  0.41120000  1.0
  P5+  P76  1  0.25000000  0.50166667  0.08880000  1.0
  P5+  P77  1  0.25000000  0.10166667  0.08880000  1.0
  P5+  P78  1  0.25000000  0.53166667  0.58880000  1.0
  P5+  P79  1  0.25000000  0.93166667  0.58880000  1.0
  P5+  P80  1  0.25000000  0.73166667  0.58880000  1.0
  P5+  P81  1  0.75000000  0.43166667  0.91120000  1.0
  P5+  P82  1  0.75000000  0.03166667  0.91120000  1.0
  P5+  P83  1  0.75000000  0.60166667  0.41120000  1.0
  P5+  P84  1  0.75000000  0.40166667  0.41120000  1.0
  P5+  P85  1  0.75000000  0.80166667  0.41120000  1.0
  O2-  O86  1  0.03820000  0.52264667  0.15950000  1.0
  O2-  O87  1  0.03820000  0.32264667  0.15950000  1.0
  O2-  O88  1  0.03820000  0.12264667  0.15950000  1.0
  O2-  O89  1  0.03820000  0.92264667  0.15950000  1.0
  O2-  O90  1  0.03820000  0.72264667  0.15950000  1.0
  O2-  O91  1  0.46180000  0.51068667  0.65950000  1.0
  O2-  O92  1  0.46180000  0.31068667  0.65950000  1.0
  O2-  O93  1  0.46180000  0.11068667  0.65950000  1.0
  O2-  O94  1  0.46180000  0.91068667  0.65950000  1.0
  O2-  O95  1  0.46180000  0.71068667  0.65950000  1.0
  O2-  O96  1  0.53820000  0.61068667  0.84050000  1.0
  O2-  O97  1  0.53820000  0.41068667  0.84050000  1.0
  O2-  O98  1  0.53820000  0.21068667  0.84050000  1.0
  O2-  O99  1  0.53820000  0.01068667  0.84050000  1.0
  O2-  O100  1  0.53820000  0.81068667  0.84050000  1.0
  O2-  O101  1  0.96180000  0.62264667  0.34050000  1.0
  O2-  O102  1  0.96180000  0.42264667  0.34050000  1.0
  O2-  O103  1  0.96180000  0.22264667  0.34050000  1.0
  O2-  O104  1  0.96180000  0.02264667  0.34050000  1.0
  O2-  O105  1  0.96180000  0.82264667  0.34050000  1.0
  O2-  O106  1  0.96180000  0.61068667  0.84050000  1.0
  O2-  O107  1  0.96180000  0.41068667  0.84050000  1.0
  O2-  O108  1  0.96180000  0.21068667  0.84050000  1.0
  O2-  O109  1  0.96180000  0.01068667  0.84050000  1.0
  O2-  O110  1  0.96180000  0.81068667  0.84050000  1.0
  O2-  O111  1  0.53820000  0.62264667  0.34050000  1.0
  O2-  O112  1  0.53820000  0.42264667  0.34050000  1.0
  O2-  O113  1  0.53820000  0.22264667  0.34050000  1.0
  O2-  O114  1  0.53820000  0.02264667  0.34050000  1.0
  O2-  O115  1  0.53820000  0.82264667  0.34050000  1.0
  O2-  O116  1  0.46180000  0.52264667  0.15950000  1.0
  O2-  O117  1  0.46180000  0.32264667  0.15950000  1.0
  O2-  O118  1  0.46180000  0.12264667  0.15950000  1.0
  O2-  O119  1  0.46180000  0.92264667  0.15950000  1.0
  O2-  O120  1  0.46180000  0.72264667  0.15950000  1.0
  O2-  O121  1  0.03820000  0.51068667  0.65950000  1.0
  O2-  O122  1  0.03820000  0.31068667  0.65950000  1.0
  O2-  O123  1  0.03820000  0.11068667  0.65950000  1.0
  O2-  O124  1  0.03820000  0.91068667  0.65950000  1.0
  O2-  O125  1  0.03820000  0.71068667  0.65950000  1.0
  O2-  O126  1  0.25000000  0.51052667  0.44720000  1.0
  O2-  O127  1  0.25000000  0.31052667  0.44720000  1.0
  O2-  O128  1  0.25000000  0.11052667  0.44720000  1.0
  O2-  O129  1  0.25000000  0.91052667  0.44720000  1.0
  O2-  O130  1  0.25000000  0.71052667  0.44720000  1.0
  O2-  O131  1  0.25000000  0.52280667  0.94720000  1.0
  O2-  O132  1  0.25000000  0.32280667  0.94720000  1.0
  O2-  O133  1  0.25000000  0.12280667  0.94720000  1.0
  O2-  O134  1  0.25000000  0.92280667  0.94720000  1.0
  O2-  O135  1  0.25000000  0.72280667  0.94720000  1.0
  O2-  O136  1  0.75000000  0.62280667  0.55280000  1.0
  O2-  O137  1  0.75000000  0.42280667  0.55280000  1.0
  O2-  O138  1  0.75000000  0.22280667  0.55280000  1.0
  O2-  O139  1  0.75000000  0.02280667  0.55280000  1.0
  O2-  O140  1  0.75000000  0.82280667  0.55280000  1.0
  O2-  O141  1  0.75000000  0.61052667  0.05280000  1.0
  O2-  O142  1  0.75000000  0.41052667  0.05280000  1.0
  O2-  O143  1  0.75000000  0.21052667  0.05280000  1.0
  O2-  O144  1  0.75000000  0.01052667  0.05280000  1.0
  O2-  O145  1  0.75000000  0.81052667  0.05280000  1.0
  O2-  O146  1  0.25000000  0.63820667  0.08950000  1.0
  O2-  O147  1  0.25000000  0.43820667  0.08950000  1.0
  O2-  O148  1  0.25000000  0.23820667  0.08950000  1.0
  O2-  O149  1  0.25000000  0.03820667  0.08950000  1.0
  O2-  O150  1  0.25000000  0.83820667  0.08950000  1.0
  O2-  O151  1  0.25000000  0.59512667  0.58950000  1.0
  O2-  O152  1  0.25000000  0.39512667  0.58950000  1.0
  O2-  O153  1  0.25000000  0.19512667  0.58950000  1.0
  O2-  O154  1  0.25000000  0.99512667  0.58950000  1.0
  O2-  O155  1  0.25000000  0.79512667  0.58950000  1.0
  O2-  O156  1  0.75000000  0.49512667  0.91050000  1.0
  O2-  O157  1  0.75000000  0.29512667  0.91050000  1.0
  O2-  O158  1  0.75000000  0.09512667  0.91050000  1.0
  O2-  O159  1  0.75000000  0.89512667  0.91050000  1.0
  O2-  O160  1  0.75000000  0.69512667  0.91050000  1.0
  O2-  O161  1  0.75000000  0.53820667  0.41050000  1.0
  O2-  O162  1  0.75000000  0.33820667  0.41050000  1.0
  O2-  O163  1  0.75000000  0.13820667  0.41050000  1.0
  O2-  O164  1  0.75000000  0.93820667  0.41050000  1.0
  O2-  O165  1  0.75000000  0.73820667  0.41050000  1.0
