# generated using pymatgen
data_Li33Si5(PO8)5
_symmetry_space_group_name_H-M   'P 1'
_cell_length_a   25.02825000
_cell_length_b   6.11520000
_cell_length_c   10.58917000
_cell_angle_alpha   90.00000000
_cell_angle_beta   90.00000000
_cell_angle_gamma   90.00000000
_symmetry_Int_Tables_number   1
_chemical_formula_structural   Li33Si5(PO8)5
_chemical_formula_sum   'Li66 Si10 P10 O80'
_cell_volume   1620.70163531
_cell_formula_units_Z   2
loop_
 _symmetry_equiv_pos_site_id
 _symmetry_equiv_pos_as_xyz
  1  'x, y, z'
loop_
 _atom_type_symbol
 _atom_type_oxidation_number
  Li+  1.0
  Si4+  4.0
  P5+  5.0
  O2-  -2.0
loop_
 _atom_site_type_symbol
 _atom_site_label
 _atom_site_symmetry_multiplicity
 _atom_site_fract_x
 _atom_site_fract_y
 _atom_site_fract_z
 _atom_site_occupancy
  Li+  Li0  1  0.21100000  0.94900000  0.51800000  1.0
  Li+  Li1  1  0.11100000  0.05100000  0.98200000  1.0
  Li+  Li2  1  0.71100000  0.44900000  0.98200000  1.0
  Li+  Li3  1  0.91100000  0.44900000  0.98200000  1.0
  Li+  Li4  1  0.28900000  0.94900000  0.01800000  1.0
  Li+  Li5  1  0.37360000  0.53600000  0.84700000  1.0
  Li+  Li6  1  0.97360000  0.53600000  0.84700000  1.0
  Li+  Li7  1  0.12640000  0.96400000  0.34700000  1.0
  Li+  Li8  1  0.47360000  0.46400000  0.65300000  1.0
  Li+  Li9  1  0.02640000  0.46400000  0.15300000  1.0
  Li+  Li10  1  0.47360000  0.03600000  0.65300000  1.0
  Li+  Li11  1  0.57360000  0.96400000  0.84700000  1.0
  Li+  Li12  1  0.52640000  0.53600000  0.34700000  1.0
  Li+  Li13  1  0.06348000  0.75000000  0.92930000  1.0
  Li+  Li14  1  0.26348000  0.75000000  0.92930000  1.0
  Li+  Li15  1  0.46348000  0.75000000  0.92930000  1.0
  Li+  Li16  1  0.66348000  0.75000000  0.92930000  1.0
  Li+  Li17  1  0.86348000  0.75000000  0.92930000  1.0
  Li+  Li18  1  0.43652000  0.75000000  0.42930000  1.0
  Li+  Li19  1  0.63652000  0.75000000  0.42930000  1.0
  Li+  Li20  1  0.33652000  0.25000000  0.07070000  1.0
  Li+  Li21  1  0.53652000  0.25000000  0.07070000  1.0
  Li+  Li22  1  0.73652000  0.25000000  0.07070000  1.0
  Li+  Li23  1  0.16348000  0.25000000  0.57070000  1.0
  Li+  Li24  1  0.36348000  0.25000000  0.57070000  1.0
  Li+  Li25  1  0.56348000  0.25000000  0.57070000  1.0
  Li+  Li26  1  0.76348000  0.25000000  0.57070000  1.0
  Li+  Li27  1  0.96348000  0.25000000  0.57070000  1.0
  Li+  Li28  1  0.20300000  0.75000000  0.78900000  1.0
  Li+  Li29  1  0.80300000  0.75000000  0.78900000  1.0
  Li+  Li30  1  0.59700000  0.25000000  0.21100000  1.0
  Li+  Li31  1  0.10300000  0.25000000  0.71100000  1.0
  Li+  Li32  1  0.30300000  0.25000000  0.71100000  1.0
  Li+  Li33  1  0.70300000  0.25000000  0.71100000  1.0
  Li+  Li34  1  0.06218000  0.99680000  0.16260000  1.0
  Li+  Li35  1  0.46218000  0.99680000  0.16260000  1.0
  Li+  Li36  1  0.86218000  0.99680000  0.16260000  1.0
  Li+  Li37  1  0.03782000  0.50320000  0.66260000  1.0
  Li+  Li38  1  0.23782000  0.50320000  0.66260000  1.0
  Li+  Li39  1  0.43782000  0.50320000  0.66260000  1.0
  Li+  Li40  1  0.63782000  0.50320000  0.66260000  1.0
  Li+  Li41  1  0.83782000  0.50320000  0.66260000  1.0
  Li+  Li42  1  0.13782000  0.49680000  0.83740000  1.0
  Li+  Li43  1  0.53782000  0.49680000  0.83740000  1.0
  Li+  Li44  1  0.73782000  0.49680000  0.83740000  1.0
  Li+  Li45  1  0.93782000  0.49680000  0.83740000  1.0
  Li+  Li46  1  0.36218000  0.00320000  0.33740000  1.0
  Li+  Li47  1  0.56218000  0.00320000  0.33740000  1.0
  Li+  Li48  1  0.76218000  0.00320000  0.33740000  1.0
  Li+  Li49  1  0.96218000  0.00320000  0.33740000  1.0
  Li+  Li50  1  0.53782000  0.00320000  0.83740000  1.0
  Li+  Li51  1  0.73782000  0.00320000  0.83740000  1.0
  Li+  Li52  1  0.93782000  0.00320000  0.83740000  1.0
  Li+  Li53  1  0.16218000  0.49680000  0.33740000  1.0
  Li+  Li54  1  0.36218000  0.49680000  0.33740000  1.0
  Li+  Li55  1  0.56218000  0.49680000  0.33740000  1.0
  Li+  Li56  1  0.76218000  0.49680000  0.33740000  1.0
  Li+  Li57  1  0.96218000  0.49680000  0.33740000  1.0
  Li+  Li58  1  0.06218000  0.50320000  0.16260000  1.0
  Li+  Li59  1  0.26218000  0.50320000  0.16260000  1.0
  Li+  Li60  1  0.46218000  0.50320000  0.16260000  1.0
  Li+  Li61  1  0.86218000  0.50320000  0.16260000  1.0
  Li+  Li62  1  0.03782000  0.99680000  0.66260000  1.0
  Li+  Li63  1  0.23782000  0.99680000  0.66260000  1.0
  Li+  Li64  1  0.43782000  0.99680000  0.66260000  1.0
  Li+  Li65  1  0.83782000  0.99680000  0.66260000  1.0
  Si4+  Si66  1  0.36500000  0.75000000  0.08880000  1.0
  Si4+  Si67  1  0.76500000  0.75000000  0.08880000  1.0
  Si4+  Si68  1  0.96500000  0.75000000  0.08880000  1.0
  Si4+  Si69  1  0.33500000  0.75000000  0.58880000  1.0
  Si4+  Si70  1  0.53500000  0.75000000  0.58880000  1.0
  Si4+  Si71  1  0.03500000  0.25000000  0.91120000  1.0
  Si4+  Si72  1  0.43500000  0.25000000  0.91120000  1.0
  Si4+  Si73  1  0.83500000  0.25000000  0.91120000  1.0
  Si4+  Si74  1  0.46500000  0.25000000  0.41120000  1.0
  Si4+  Si75  1  0.66500000  0.25000000  0.41120000  1.0
  P5+  P76  1  0.16500000  0.75000000  0.08880000  1.0
  P5+  P77  1  0.56500000  0.75000000  0.08880000  1.0
  P5+  P78  1  0.13500000  0.75000000  0.58880000  1.0
  P5+  P79  1  0.73500000  0.75000000  0.58880000  1.0
  P5+  P80  1  0.93500000  0.75000000  0.58880000  1.0
  P5+  P81  1  0.23500000  0.25000000  0.91120000  1.0
  P5+  P82  1  0.63500000  0.25000000  0.91120000  1.0
  P5+  P83  1  0.06500000  0.25000000  0.41120000  1.0
  P5+  P84  1  0.26500000  0.25000000  0.41120000  1.0
  P5+  P85  1  0.86500000  0.25000000  0.41120000  1.0
  O2-  O1  1  0.14402000  0.96180000  0.15950000  1.0
  O2-  O1  1  0.34402000  0.96180000  0.15950000  1.0
  O2-  O1  1  0.54402000  0.96180000  0.15950000  1.0
  O2-  O1  1  0.74402000  0.96180000  0.15950000  1.0
  O2-  O1  1  0.94402000  0.96180000  0.15950000  1.0
  O2-  O1  1  0.15598000  0.53820000  0.65950000  1.0
  O2-  O1  1  0.35598000  0.53820000  0.65950000  1.0
  O2-  O1  1  0.55598000  0.53820000  0.65950000  1.0
  O2-  O1  1  0.75598000  0.53820000  0.65950000  1.0
  O2-  O1  1  0.95598000  0.53820000  0.65950000  1.0
  O2-  O1  1  0.05598000  0.46180000  0.84050000  1.0
  O2-  O1  1  0.25598000  0.46180000  0.84050000  1.0
  O2-  O1  1  0.45598000  0.46180000  0.84050000  1.0
  O2-  O1  1  0.65598000  0.46180000  0.84050000  1.0
  O2-  O1  1  0.85598000  0.46180000  0.84050000  1.0
  O2-  O1  1  0.04402000  0.03820000  0.34050000  1.0
  O2-  O1  1  0.24402000  0.03820000  0.34050000  1.0
  O2-  O1  1  0.44402000  0.03820000  0.34050000  1.0
  O2-  O1  1  0.64402000  0.03820000  0.34050000  1.0
  O2-  O1  1  0.84402000  0.03820000  0.34050000  1.0
  O2-  O1  1  0.05598000  0.03820000  0.84050000  1.0
  O2-  O1  1  0.25598000  0.03820000  0.84050000  1.0
  O2-  O1  1  0.45598000  0.03820000  0.84050000  1.0
  O2-  O1  1  0.65598000  0.03820000  0.84050000  1.0
  O2-  O1  1  0.85598000  0.03820000  0.84050000  1.0
  O2-  O1  1  0.04402000  0.46180000  0.34050000  1.0
  O2-  O1  1  0.24402000  0.46180000  0.34050000  1.0
  O2-  O1  1  0.44402000  0.46180000  0.34050000  1.0
  O2-  O1  1  0.64402000  0.46180000  0.34050000  1.0
  O2-  O1  1  0.84402000  0.46180000  0.34050000  1.0
  O2-  O1  1  0.14402000  0.53820000  0.15950000  1.0
  O2-  O1  1  0.34402000  0.53820000  0.15950000  1.0
  O2-  O1  1  0.54402000  0.53820000  0.15950000  1.0
  O2-  O1  1  0.74402000  0.53820000  0.15950000  1.0
  O2-  O1  1  0.94402000  0.53820000  0.15950000  1.0
  O2-  O1  1  0.15598000  0.96180000  0.65950000  1.0
  O2-  O1  1  0.35598000  0.96180000  0.65950000  1.0
  O2-  O1  1  0.55598000  0.96180000  0.65950000  1.0
  O2-  O1  1  0.75598000  0.96180000  0.65950000  1.0
  O2-  O1  1  0.95598000  0.96180000  0.65950000  1.0
  O2-  O2  1  0.15614000  0.75000000  0.44720000  1.0
  O2-  O2  1  0.35614000  0.75000000  0.44720000  1.0
  O2-  O2  1  0.55614000  0.75000000  0.44720000  1.0
  O2-  O2  1  0.75614000  0.75000000  0.44720000  1.0
  O2-  O2  1  0.95614000  0.75000000  0.44720000  1.0
  O2-  O2  1  0.14386000  0.75000000  0.94720000  1.0
  O2-  O2  1  0.34386000  0.75000000  0.94720000  1.0
  O2-  O2  1  0.54386000  0.75000000  0.94720000  1.0
  O2-  O2  1  0.74386000  0.75000000  0.94720000  1.0
  O2-  O2  1  0.94386000  0.75000000  0.94720000  1.0
  O2-  O2  1  0.04386000  0.25000000  0.55280000  1.0
  O2-  O2  1  0.24386000  0.25000000  0.55280000  1.0
  O2-  O2  1  0.44386000  0.25000000  0.55280000  1.0
  O2-  O2  1  0.64386000  0.25000000  0.55280000  1.0
  O2-  O2  1  0.84386000  0.25000000  0.55280000  1.0
  O2-  O2  1  0.05614000  0.25000000  0.05280000  1.0
  O2-  O2  1  0.25614000  0.25000000  0.05280000  1.0
  O2-  O2  1  0.45614000  0.25000000  0.05280000  1.0
  O2-  O2  1  0.65614000  0.25000000  0.05280000  1.0
  O2-  O2  1  0.85614000  0.25000000  0.05280000  1.0
  O2-  O3  1  0.02846000  0.75000000  0.08950000  1.0
  O2-  O3  1  0.22846000  0.75000000  0.08950000  1.0
  O2-  O3  1  0.42846000  0.75000000  0.08950000  1.0
  O2-  O3  1  0.62846000  0.75000000  0.08950000  1.0
  O2-  O3  1  0.82846000  0.75000000  0.08950000  1.0
  O2-  O3  1  0.07154000  0.75000000  0.58950000  1.0
  O2-  O3  1  0.27154000  0.75000000  0.58950000  1.0
  O2-  O3  1  0.47154000  0.75000000  0.58950000  1.0
  O2-  O3  1  0.67154000  0.75000000  0.58950000  1.0
  O2-  O3  1  0.87154000  0.75000000  0.58950000  1.0
  O2-  O3  1  0.17154000  0.25000000  0.91050000  1.0
  O2-  O3  1  0.37154000  0.25000000  0.91050000  1.0
  O2-  O3  1  0.57154000  0.25000000  0.91050000  1.0
  O2-  O3  1  0.77154000  0.25000000  0.91050000  1.0
  O2-  O3  1  0.97154000  0.25000000  0.91050000  1.0
  O2-  O3  1  0.12846000  0.25000000  0.41050000  1.0
  O2-  O3  1  0.32846000  0.25000000  0.41050000  1.0
  O2-  O3  1  0.52846000  0.25000000  0.41050000  1.0
  O2-  O3  1  0.72846000  0.25000000  0.41050000  1.0
  O2-  O3  1  0.92846000  0.25000000  0.41050000  1.0
