# generated using pymatgen
data_Li3P
_symmetry_space_group_name_H-M   'P 1'
_cell_length_a   12.81900000
_cell_length_b   12.81900000
_cell_length_c   15.18800000
_cell_angle_alpha   90.00000000
_cell_angle_beta   90.00000000
_cell_angle_gamma   120.00000000
_symmetry_Int_Tables_number   1
_chemical_formula_structural   Li3P
_chemical_formula_sum   'Li108 P36'
_cell_volume   2161.42173933
_cell_formula_units_Z   36
loop_
 _symmetry_equiv_pos_site_id
 _symmetry_equiv_pos_as_xyz
  1  'x, y, z'
loop_
 _atom_type_symbol
 _atom_type_oxidation_number
  Li+  1.0
  P3-  -3.0
loop_
 _atom_site_type_symbol
 _atom_site_label
 _atom_site_symmetry_multiplicity
 _atom_site_fract_x
 _atom_site_fract_y
 _atom_site_fract_z
 _atom_site_occupancy
  Li+  Li1  1  0.00000000  0.00000000  0.37500000  1.0
  Li+  Li1  1  0.00000000  0.00000000  0.87500000  1.0
  Li+  Li1  1  0.00000000  0.33333333  0.37500000  1.0
  Li+  Li1  1  0.00000000  0.33333333  0.87500000  1.0
  Li+  Li1  1  0.00000000  0.66666667  0.37500000  1.0
  Li+  Li1  1  0.00000000  0.66666667  0.87500000  1.0
  Li+  Li1  1  0.33333333  0.00000000  0.37500000  1.0
  Li+  Li1  1  0.33333333  0.00000000  0.87500000  1.0
  Li+  Li1  1  0.33333333  0.33333333  0.37500000  1.0
  Li+  Li1  1  0.33333333  0.33333333  0.87500000  1.0
  Li+  Li1  1  0.33333333  0.66666667  0.37500000  1.0
  Li+  Li1  1  0.33333333  0.66666667  0.87500000  1.0
  Li+  Li1  1  0.66666667  0.00000000  0.37500000  1.0
  Li+  Li1  1  0.66666667  0.00000000  0.87500000  1.0
  Li+  Li1  1  0.66666667  0.33333333  0.37500000  1.0
  Li+  Li1  1  0.66666667  0.33333333  0.87500000  1.0
  Li+  Li1  1  0.66666667  0.66666667  0.37500000  1.0
  Li+  Li1  1  0.66666667  0.66666667  0.87500000  1.0
  Li+  Li1  1  0.00000000  0.00000000  0.12500000  1.0
  Li+  Li1  1  0.00000000  0.00000000  0.62500000  1.0
  Li+  Li1  1  0.00000000  0.33333333  0.12500000  1.0
  Li+  Li1  1  0.00000000  0.33333333  0.62500000  1.0
  Li+  Li1  1  0.00000000  0.66666667  0.12500000  1.0
  Li+  Li1  1  0.00000000  0.66666667  0.62500000  1.0
  Li+  Li1  1  0.33333333  0.00000000  0.12500000  1.0
  Li+  Li1  1  0.33333333  0.00000000  0.62500000  1.0
  Li+  Li1  1  0.33333333  0.33333333  0.12500000  1.0
  Li+  Li1  1  0.33333333  0.33333333  0.62500000  1.0
  Li+  Li1  1  0.33333333  0.66666667  0.12500000  1.0
  Li+  Li1  1  0.33333333  0.66666667  0.62500000  1.0
  Li+  Li1  1  0.66666667  0.00000000  0.12500000  1.0
  Li+  Li1  1  0.66666667  0.00000000  0.62500000  1.0
  Li+  Li1  1  0.66666667  0.33333333  0.12500000  1.0
  Li+  Li1  1  0.66666667  0.33333333  0.62500000  1.0
  Li+  Li1  1  0.66666667  0.66666667  0.12500000  1.0
  Li+  Li1  1  0.66666667  0.66666667  0.62500000  1.0
  Li+  Li2  1  0.22222222  0.11111111  0.04200000  1.0
  Li+  Li2  1  0.22222222  0.11111111  0.54200000  1.0
  Li+  Li2  1  0.22222222  0.44444444  0.04200000  1.0
  Li+  Li2  1  0.22222222  0.44444444  0.54200000  1.0
  Li+  Li2  1  0.22222222  0.77777778  0.04200000  1.0
  Li+  Li2  1  0.22222222  0.77777778  0.54200000  1.0
  Li+  Li2  1  0.55555556  0.11111111  0.04200000  1.0
  Li+  Li2  1  0.55555556  0.11111111  0.54200000  1.0
  Li+  Li2  1  0.55555556  0.44444444  0.04200000  1.0
  Li+  Li2  1  0.55555556  0.44444444  0.54200000  1.0
  Li+  Li2  1  0.55555556  0.77777778  0.04200000  1.0
  Li+  Li2  1  0.55555556  0.77777778  0.54200000  1.0
  Li+  Li2  1  0.88888889  0.11111111  0.04200000  1.0
  Li+  Li2  1  0.88888889  0.11111111  0.54200000  1.0
  Li+  Li2  1  0.88888889  0.44444444  0.04200000  1.0
  Li+  Li2  1  0.88888889  0.44444444  0.54200000  1.0
  Li+  Li2  1  0.88888889  0.77777778  0.04200000  1.0
  Li+  Li2  1  0.88888889  0.77777778  0.54200000  1.0
  Li+  Li2  1  0.11111111  0.22222222  0.45800000  1.0
  Li+  Li2  1  0.11111111  0.22222222  0.95800000  1.0
  Li+  Li2  1  0.11111111  0.55555556  0.45800000  1.0
  Li+  Li2  1  0.11111111  0.55555556  0.95800000  1.0
  Li+  Li2  1  0.11111111  0.88888889  0.45800000  1.0
  Li+  Li2  1  0.11111111  0.88888889  0.95800000  1.0
  Li+  Li2  1  0.44444444  0.22222222  0.45800000  1.0
  Li+  Li2  1  0.44444444  0.22222222  0.95800000  1.0
  Li+  Li2  1  0.44444444  0.55555556  0.45800000  1.0
  Li+  Li2  1  0.44444444  0.55555556  0.95800000  1.0
  Li+  Li2  1  0.44444444  0.88888889  0.45800000  1.0
  Li+  Li2  1  0.44444444  0.88888889  0.95800000  1.0
  Li+  Li2  1  0.77777778  0.22222222  0.45800000  1.0
  Li+  Li2  1  0.77777778  0.22222222  0.95800000  1.0
  Li+  Li2  1  0.77777778  0.55555556  0.45800000  1.0
  Li+  Li2  1  0.77777778  0.55555556  0.95800000  1.0
  Li+  Li2  1  0.77777778  0.88888889  0.45800000  1.0
  Li+  Li2  1  0.77777778  0.88888889  0.95800000  1.0
  Li+  Li2  1  0.11111111  0.22222222  0.29200000  1.0
  Li+  Li2  1  0.11111111  0.22222222  0.79200000  1.0
  Li+  Li2  1  0.11111111  0.55555556  0.29200000  1.0
  Li+  Li2  1  0.11111111  0.55555556  0.79200000  1.0
  Li+  Li2  1  0.11111111  0.88888889  0.29200000  1.0
  Li+  Li2  1  0.11111111  0.88888889  0.79200000  1.0
  Li+  Li2  1  0.44444444  0.22222222  0.29200000  1.0
  Li+  Li2  1  0.44444444  0.22222222  0.79200000  1.0
  Li+  Li2  1  0.44444444  0.55555556  0.29200000  1.0
  Li+  Li2  1  0.44444444  0.55555556  0.79200000  1.0
  Li+  Li2  1  0.44444444  0.88888889  0.29200000  1.0
  Li+  Li2  1  0.44444444  0.88888889  0.79200000  1.0
  Li+  Li2  1  0.77777778  0.22222222  0.29200000  1.0
  Li+  Li2  1  0.77777778  0.22222222  0.79200000  1.0
  Li+  Li2  1  0.77777778  0.55555556  0.29200000  1.0
  Li+  Li2  1  0.77777778  0.55555556  0.79200000  1.0
  Li+  Li2  1  0.77777778  0.88888889  0.29200000  1.0
  Li+  Li2  1  0.77777778  0.88888889  0.79200000  1.0
  Li+  Li2  1  0.22222222  0.11111111  0.20800000  1.0
  Li+  Li2  1  0.22222222  0.11111111  0.70800000  1.0
  Li+  Li2  1  0.22222222  0.44444444  0.20800000  1.0
  Li+  Li2  1  0.22222222  0.44444444  0.70800000  1.0
  Li+  Li2  1  0.22222222  0.77777778  0.20800000  1.0
  Li+  Li2  1  0.22222222  0.77777778  0.70800000  1.0
  Li+  Li2  1  0.55555556  0.11111111  0.20800000  1.0
  Li+  Li2  1  0.55555556  0.11111111  0.70800000  1.0
  Li+  Li2  1  0.55555556  0.44444444  0.20800000  1.0
  Li+  Li2  1  0.55555556  0.44444444  0.70800000  1.0
  Li+  Li2  1  0.55555556  0.77777778  0.20800000  1.0
  Li+  Li2  1  0.55555556  0.77777778  0.70800000  1.0
  Li+  Li2  1  0.88888889  0.11111111  0.20800000  1.0
  Li+  Li2  1  0.88888889  0.11111111  0.70800000  1.0
  Li+  Li2  1  0.88888889  0.44444444  0.20800000  1.0
  Li+  Li2  1  0.88888889  0.44444444  0.70800000  1.0
  Li+  Li2  1  0.88888889  0.77777778  0.20800000  1.0
  Li+  Li2  1  0.88888889  0.77777778  0.70800000  1.0
  P3-  P1  1  0.22222222  0.11111111  0.37500000  1.0
  P3-  P1  1  0.22222222  0.11111111  0.87500000  1.0
  P3-  P1  1  0.22222222  0.44444444  0.37500000  1.0
  P3-  P1  1  0.22222222  0.44444444  0.87500000  1.0
  P3-  P1  1  0.22222222  0.77777778  0.37500000  1.0
  P3-  P1  1  0.22222222  0.77777778  0.87500000  1.0
  P3-  P1  1  0.55555556  0.11111111  0.37500000  1.0
  P3-  P1  1  0.55555556  0.11111111  0.87500000  1.0
  P3-  P1  1  0.55555556  0.44444444  0.37500000  1.0
  P3-  P1  1  0.55555556  0.44444444  0.87500000  1.0
  P3-  P1  1  0.55555556  0.77777778  0.37500000  1.0
  P3-  P1  1  0.55555556  0.77777778  0.87500000  1.0
  P3-  P1  1  0.88888889  0.11111111  0.37500000  1.0
  P3-  P1  1  0.88888889  0.11111111  0.87500000  1.0
  P3-  P1  1  0.88888889  0.44444444  0.37500000  1.0
  P3-  P1  1  0.88888889  0.44444444  0.87500000  1.0
  P3-  P1  1  0.88888889  0.77777778  0.37500000  1.0
  P3-  P1  1  0.88888889  0.77777778  0.87500000  1.0
  P3-  P1  1  0.11111111  0.22222222  0.12500000  1.0
  P3-  P1  1  0.11111111  0.22222222  0.62500000  1.0
  P3-  P1  1  0.11111111  0.55555556  0.12500000  1.0
  P3-  P1  1  0.11111111  0.55555556  0.62500000  1.0
  P3-  P1  1  0.11111111  0.88888889  0.12500000  1.0
  P3-  P1  1  0.11111111  0.88888889  0.62500000  1.0
  P3-  P1  1  0.44444444  0.22222222  0.12500000  1.0
  P3-  P1  1  0.44444444  0.22222222  0.62500000  1.0
  P3-  P1  1  0.44444444  0.55555556  0.12500000  1.0
  P3-  P1  1  0.44444444  0.55555556  0.62500000  1.0
  P3-  P1  1  0.44444444  0.88888889  0.12500000  1.0
  P3-  P1  1  0.44444444  0.88888889  0.62500000  1.0
  P3-  P1  1  0.77777778  0.22222222  0.12500000  1.0
  P3-  P1  1  0.77777778  0.22222222  0.62500000  1.0
  P3-  P1  1  0.77777778  0.55555556  0.12500000  1.0
  P3-  P1  1  0.77777778  0.55555556  0.62500000  1.0
  P3-  P1  1  0.77777778  0.88888889  0.12500000  1.0
  P3-  P1  1  0.77777778  0.88888889  0.62500000  1.0
