# generated using pymatgen
data_Li9N2Cl3
_symmetry_space_group_name_H-M   'P 1'
_cell_length_a   22.91025972
_cell_length_b   7.63675324
_cell_length_c   19.09188309
_cell_angle_alpha   60.00000000
_cell_angle_beta   60.00000000
_cell_angle_gamma   60.00000000
_symmetry_Int_Tables_number   1
_chemical_formula_structural   Li9N2Cl3
_chemical_formula_sum   'Li108 N24 Cl36'
_cell_volume   2361.96000172
_cell_formula_units_Z   12
loop_
 _symmetry_equiv_pos_site_id
 _symmetry_equiv_pos_as_xyz
  1  'x, y, z'
loop_
 _atom_type_symbol
 _atom_type_oxidation_number
  Li+  1.0
  N3-  -3.0
  Cl-  -1.0
loop_
 _atom_site_type_symbol
 _atom_site_label
 _atom_site_symmetry_multiplicity
 _atom_site_fract_x
 _atom_site_fract_y
 _atom_site_fract_z
 _atom_site_occupancy
  Li+  Li0  1  0.04166667  0.12500000  0.05000000  1.0
  Li+  Li0  1  0.37500000  0.12500000  0.05000000  1.0
  Li+  Li0  1  0.70833333  0.12500000  0.05000000  1.0
  Li+  Li1  1  0.04166667  0.12500000  0.25000000  1.0
  Li+  Li1  1  0.37500000  0.12500000  0.25000000  1.0
  Li+  Li1  1  0.70833333  0.12500000  0.25000000  1.0
  Li+  Li2  1  0.04166667  0.12500000  0.45000000  1.0
  Li+  Li2  1  0.37500000  0.12500000  0.45000000  1.0
  Li+  Li2  1  0.70833333  0.12500000  0.45000000  1.0
  Li+  Li3  1  0.04166667  0.12500000  0.65000000  1.0
  Li+  Li3  1  0.37500000  0.12500000  0.65000000  1.0
  Li+  Li3  1  0.70833333  0.12500000  0.65000000  1.0
  Li+  Li4  1  0.04166667  0.12500000  0.85000000  1.0
  Li+  Li4  1  0.37500000  0.12500000  0.85000000  1.0
  Li+  Li4  1  0.70833333  0.12500000  0.85000000  1.0
  Li+  Li5  1  0.04166667  0.62500000  0.05000000  1.0
  Li+  Li5  1  0.37500000  0.62500000  0.05000000  1.0
  Li+  Li5  1  0.70833333  0.62500000  0.05000000  1.0
  Li+  Li6  1  0.04166667  0.62500000  0.25000000  1.0
  Li+  Li6  1  0.37500000  0.62500000  0.25000000  1.0
  Li+  Li6  1  0.70833333  0.62500000  0.25000000  1.0
  Li+  Li7  1  0.04166667  0.62500000  0.65000000  1.0
  Li+  Li7  1  0.37500000  0.62500000  0.65000000  1.0
  Li+  Li7  1  0.70833333  0.62500000  0.65000000  1.0
  Li+  Li8  1  0.04166667  0.62500000  0.85000000  1.0
  Li+  Li8  1  0.37500000  0.62500000  0.85000000  1.0
  Li+  Li8  1  0.70833333  0.62500000  0.85000000  1.0
  Li+  Li9  1  0.20833333  0.12500000  0.05000000  1.0
  Li+  Li9  1  0.54166667  0.12500000  0.05000000  1.0
  Li+  Li9  1  0.87500000  0.12500000  0.05000000  1.0
  Li+  Li10  1  0.20833333  0.12500000  0.25000000  1.0
  Li+  Li10  1  0.54166667  0.12500000  0.25000000  1.0
  Li+  Li10  1  0.87500000  0.12500000  0.25000000  1.0
  Li+  Li11  1  0.20833333  0.12500000  0.45000000  1.0
  Li+  Li11  1  0.54166667  0.12500000  0.45000000  1.0
  Li+  Li11  1  0.87500000  0.12500000  0.45000000  1.0
  Li+  Li12  1  0.20833333  0.12500000  0.65000000  1.0
  Li+  Li12  1  0.54166667  0.12500000  0.65000000  1.0
  Li+  Li12  1  0.87500000  0.12500000  0.65000000  1.0
  Li+  Li13  1  0.20833333  0.12500000  0.85000000  1.0
  Li+  Li13  1  0.54166667  0.12500000  0.85000000  1.0
  Li+  Li13  1  0.87500000  0.12500000  0.85000000  1.0
  Li+  Li14  1  0.20833333  0.62500000  0.25000000  1.0
  Li+  Li14  1  0.54166667  0.62500000  0.25000000  1.0
  Li+  Li14  1  0.87500000  0.62500000  0.25000000  1.0
  Li+  Li15  1  0.20833333  0.62500000  0.45000000  1.0
  Li+  Li15  1  0.54166667  0.62500000  0.45000000  1.0
  Li+  Li15  1  0.87500000  0.62500000  0.45000000  1.0
  Li+  Li16  1  0.20833333  0.62500000  0.65000000  1.0
  Li+  Li16  1  0.54166667  0.62500000  0.65000000  1.0
  Li+  Li16  1  0.87500000  0.62500000  0.65000000  1.0
  Li+  Li17  1  0.20833333  0.62500000  0.85000000  1.0
  Li+  Li17  1  0.54166667  0.62500000  0.85000000  1.0
  Li+  Li17  1  0.87500000  0.62500000  0.85000000  1.0
  Li+  Li18  1  0.12500000  0.37500000  0.15000000  1.0
  Li+  Li18  1  0.45833333  0.37500000  0.15000000  1.0
  Li+  Li18  1  0.79166667  0.37500000  0.15000000  1.0
  Li+  Li19  1  0.12500000  0.37500000  0.35000000  1.0
  Li+  Li19  1  0.45833333  0.37500000  0.35000000  1.0
  Li+  Li19  1  0.79166667  0.37500000  0.35000000  1.0
  Li+  Li20  1  0.12500000  0.37500000  0.75000000  1.0
  Li+  Li20  1  0.45833333  0.37500000  0.75000000  1.0
  Li+  Li20  1  0.79166667  0.37500000  0.75000000  1.0
  Li+  Li21  1  0.12500000  0.37500000  0.95000000  1.0
  Li+  Li21  1  0.45833333  0.37500000  0.95000000  1.0
  Li+  Li21  1  0.79166667  0.37500000  0.95000000  1.0
  Li+  Li22  1  0.12500000  0.87500000  0.15000000  1.0
  Li+  Li22  1  0.45833333  0.87500000  0.15000000  1.0
  Li+  Li22  1  0.79166667  0.87500000  0.15000000  1.0
  Li+  Li23  1  0.12500000  0.87500000  0.35000000  1.0
  Li+  Li23  1  0.45833333  0.87500000  0.35000000  1.0
  Li+  Li23  1  0.79166667  0.87500000  0.35000000  1.0
  Li+  Li24  1  0.12500000  0.87500000  0.55000000  1.0
  Li+  Li24  1  0.45833333  0.87500000  0.55000000  1.0
  Li+  Li24  1  0.79166667  0.87500000  0.55000000  1.0
  Li+  Li25  1  0.12500000  0.87500000  0.75000000  1.0
  Li+  Li25  1  0.45833333  0.87500000  0.75000000  1.0
  Li+  Li25  1  0.79166667  0.87500000  0.75000000  1.0
  Li+  Li26  1  0.12500000  0.87500000  0.95000000  1.0
  Li+  Li26  1  0.45833333  0.87500000  0.95000000  1.0
  Li+  Li26  1  0.79166667  0.87500000  0.95000000  1.0
  Li+  Li27  1  0.29166667  0.37500000  0.15000000  1.0
  Li+  Li27  1  0.62500000  0.37500000  0.15000000  1.0
  Li+  Li27  1  0.95833333  0.37500000  0.15000000  1.0
  Li+  Li28  1  0.29166667  0.37500000  0.55000000  1.0
  Li+  Li28  1  0.62500000  0.37500000  0.55000000  1.0
  Li+  Li28  1  0.95833333  0.37500000  0.55000000  1.0
  Li+  Li29  1  0.29166667  0.37500000  0.75000000  1.0
  Li+  Li29  1  0.62500000  0.37500000  0.75000000  1.0
  Li+  Li29  1  0.95833333  0.37500000  0.75000000  1.0
  Li+  Li30  1  0.29166667  0.37500000  0.95000000  1.0
  Li+  Li30  1  0.62500000  0.37500000  0.95000000  1.0
  Li+  Li30  1  0.95833333  0.37500000  0.95000000  1.0
  Li+  Li31  1  0.29166667  0.87500000  0.15000000  1.0
  Li+  Li31  1  0.62500000  0.87500000  0.15000000  1.0
  Li+  Li31  1  0.95833333  0.87500000  0.15000000  1.0
  Li+  Li32  1  0.29166667  0.87500000  0.35000000  1.0
  Li+  Li32  1  0.62500000  0.87500000  0.35000000  1.0
  Li+  Li32  1  0.95833333  0.87500000  0.35000000  1.0
  Li+  Li33  1  0.29166667  0.87500000  0.55000000  1.0
  Li+  Li33  1  0.62500000  0.87500000  0.55000000  1.0
  Li+  Li33  1  0.95833333  0.87500000  0.55000000  1.0
  Li+  Li34  1  0.29166667  0.87500000  0.75000000  1.0
  Li+  Li34  1  0.62500000  0.87500000  0.75000000  1.0
  Li+  Li34  1  0.95833333  0.87500000  0.75000000  1.0
  Li+  Li35  1  0.29166667  0.87500000  0.95000000  1.0
  Li+  Li35  1  0.62500000  0.87500000  0.95000000  1.0
  Li+  Li35  1  0.95833333  0.87500000  0.95000000  1.0
  N3-  N36  1  0.00000000  0.00000000  0.60000000  1.0
  N3-  N36  1  0.33333333  0.00000000  0.60000000  1.0
  N3-  N36  1  0.66666667  0.00000000  0.60000000  1.0
  N3-  N37  1  0.00000000  0.50000000  0.80000000  1.0
  N3-  N37  1  0.33333333  0.50000000  0.80000000  1.0
  N3-  N37  1  0.66666667  0.50000000  0.80000000  1.0
  N3-  N38  1  0.16666667  0.00000000  0.00000000  1.0
  N3-  N38  1  0.50000000  0.00000000  0.00000000  1.0
  N3-  N38  1  0.83333333  0.00000000  1.00000000  1.0
  N3-  N39  1  0.16666667  0.00000000  0.20000000  1.0
  N3-  N39  1  0.50000000  0.00000000  0.20000000  1.0
  N3-  N39  1  0.83333333  0.00000000  0.20000000  1.0
  N3-  N40  1  0.16666667  0.00000000  0.40000000  1.0
  N3-  N40  1  0.50000000  0.00000000  0.40000000  1.0
  N3-  N40  1  0.83333333  0.00000000  0.40000000  1.0
  N3-  N41  1  0.16666667  0.00000000  0.60000000  1.0
  N3-  N41  1  0.50000000  0.00000000  0.60000000  1.0
  N3-  N41  1  0.83333333  0.00000000  0.60000000  1.0
  N3-  N42  1  0.16666667  0.50000000  0.00000000  1.0
  N3-  N42  1  0.50000000  0.50000000  0.00000000  1.0
  N3-  N42  1  0.83333333  0.50000000  0.00000000  1.0
  N3-  N43  1  0.16666667  0.50000000  0.80000000  1.0
  N3-  N43  1  0.50000000  0.50000000  0.80000000  1.0
  N3-  N43  1  0.83333333  0.50000000  0.80000000  1.0
  Cl-  Cl44  1  0.00000000  0.00000000  0.00000000  1.0
  Cl-  Cl44  1  0.33333333  0.00000000  0.00000000  1.0
  Cl-  Cl44  1  0.66666667  0.00000000  0.00000000  1.0
  Cl-  Cl45  1  0.00000000  0.00000000  0.20000000  1.0
  Cl-  Cl45  1  0.33333333  0.00000000  0.20000000  1.0
  Cl-  Cl45  1  0.66666667  0.00000000  0.20000000  1.0
  Cl-  Cl46  1  0.00000000  0.00000000  0.40000000  1.0
  Cl-  Cl46  1  0.33333333  0.00000000  0.40000000  1.0
  Cl-  Cl46  1  0.66666667  0.00000000  0.40000000  1.0
  Cl-  Cl47  1  0.00000000  0.00000000  0.80000000  1.0
  Cl-  Cl47  1  0.33333333  0.00000000  0.80000000  1.0
  Cl-  Cl47  1  0.66666667  0.00000000  0.80000000  1.0
  Cl-  Cl48  1  0.00000000  0.50000000  0.00000000  1.0
  Cl-  Cl48  1  0.33333333  0.50000000  0.00000000  1.0
  Cl-  Cl48  1  0.66666667  0.50000000  0.00000000  1.0
  Cl-  Cl49  1  0.00000000  0.50000000  0.20000000  1.0
  Cl-  Cl49  1  0.33333333  0.50000000  0.20000000  1.0
  Cl-  Cl49  1  0.66666667  0.50000000  0.20000000  1.0
  Cl-  Cl50  1  0.00000000  0.50000000  0.40000000  1.0
  Cl-  Cl50  1  0.33333333  0.50000000  0.40000000  1.0
  Cl-  Cl50  1  0.66666667  0.50000000  0.40000000  1.0
  Cl-  Cl51  1  0.00000000  0.50000000  0.60000000  1.0
  Cl-  Cl51  1  0.33333333  0.50000000  0.60000000  1.0
  Cl-  Cl51  1  0.66666667  0.50000000  0.60000000  1.0
  Cl-  Cl52  1  0.16666667  0.00000000  0.80000000  1.0
  Cl-  Cl52  1  0.50000000  0.00000000  0.80000000  1.0
  Cl-  Cl52  1  0.83333333  0.00000000  0.80000000  1.0
  Cl-  Cl53  1  0.16666667  0.50000000  0.20000000  1.0
  Cl-  Cl53  1  0.50000000  0.50000000  0.20000000  1.0
  Cl-  Cl53  1  0.83333333  0.50000000  0.20000000  1.0
  Cl-  Cl54  1  0.16666667  0.50000000  0.40000000  1.0
  Cl-  Cl54  1  0.50000000  0.50000000  0.40000000  1.0
  Cl-  Cl54  1  0.83333333  0.50000000  0.40000000  1.0
  Cl-  Cl55  1  0.16666667  0.50000000  0.60000000  1.0
  Cl-  Cl55  1  0.50000000  0.50000000  0.60000000  1.0
  Cl-  Cl55  1  0.83333333  0.50000000  0.60000000  1.0
