# generated using pymatgen
data_Li4GeS4
_symmetry_space_group_name_H-M   'P 1'
_cell_length_a   12.29946000
_cell_length_b   14.06580000
_cell_length_c   15.50204000
_cell_angle_alpha   90.00000000
_cell_angle_beta   90.00000000
_cell_angle_gamma   90.00000000
_symmetry_Int_Tables_number   1
_chemical_formula_structural   Li4GeS4
_chemical_formula_sum   'Li64 Ge16 S64'
_cell_volume   2681.87996281
_cell_formula_units_Z   16
loop_
 _symmetry_equiv_pos_site_id
 _symmetry_equiv_pos_as_xyz
  1  'x, y, z'
loop_
 _atom_type_symbol
 _atom_type_oxidation_number
  Li+  1.0
  Ge4+  4.0
  S2-  -2.0
loop_
 _atom_site_type_symbol
 _atom_site_label
 _atom_site_symmetry_multiplicity
 _atom_site_fract_x
 _atom_site_fract_y
 _atom_site_fract_z
 _atom_site_occupancy
  Li+  Li0  1  0.08750000  0.66500000  0.50200000  1.0
  Li+  Li1  1  0.08750000  0.66500000  0.00200000  1.0
  Li+  Li2  1  0.58750000  0.66500000  0.50200000  1.0
  Li+  Li3  1  0.58501058  0.66383584  0.00578460  1.0
  Li+  Li4  1  0.16250000  0.16500000  0.74800000  1.0
  Li+  Li5  1  0.16250000  0.16500000  0.24800000  1.0
  Li+  Li6  1  0.66250000  0.16500000  0.74800000  1.0
  Li+  Li7  1  0.66250000  0.16500000  0.24800000  1.0
  Li+  Li8  1  0.41226125  0.33430113  0.24844357  1.0
  Li+  Li9  1  0.41250000  0.33500000  0.75200000  1.0
  Li+  Li10  1  0.91250000  0.33500000  0.25200000  1.0
  Li+  Li11  1  0.91250000  0.33500000  0.75200000  1.0
  Li+  Li12  1  0.33750000  0.83500000  0.49800000  1.0
  Li+  Li13  1  0.33750000  0.83500000  0.99800000  1.0
  Li+  Li14  1  0.83750000  0.83500000  0.49800000  1.0
  Li+  Li15  1  0.83750000  0.83500000  0.99800000  1.0
  Li+  Li16  1  0.41250000  0.33500000  0.49800000  1.0
  Li+  Li17  1  0.41250000  0.33500000  0.99800000  1.0
  Li+  Li18  1  0.91250000  0.33500000  0.49800000  1.0
  Li+  Li19  1  0.91250000  0.33500000  0.99800000  1.0
  Li+  Li20  1  0.33750000  0.83500000  0.25200000  1.0
  Li+  Li21  1  0.33750000  0.83500000  0.75200000  1.0
  Li+  Li22  1  0.83750000  0.83500000  0.25200000  1.0
  Li+  Li23  1  0.83665370  0.83774556  0.75025877  1.0
  Li+  Li24  1  0.08803746  0.66850351  0.74961904  1.0
  Li+  Li25  1  0.08750000  0.66500000  0.24800000  1.0
  Li+  Li26  1  0.58750000  0.66500000  0.74800000  1.0
  Li+  Li27  1  0.59002549  0.66221973  0.24516814  1.0
  Li+  Li28  1  0.16250000  0.16500000  0.50200000  1.0
  Li+  Li29  1  0.16250000  0.16500000  0.00200000  1.0
  Li+  Li30  1  0.66250000  0.16500000  0.50200000  1.0
  Li+  Li31  1  0.66250000  0.16500000  0.00200000  1.0
  Li+  Li32  1  0.16450000  0.92400000  0.62500000  1.0
  Li+  Li33  1  0.16416019  0.92202580  0.12182751  1.0
  Li+  Li34  1  0.66450000  0.92400000  0.62500000  1.0
  Li+  Li35  1  0.66450000  0.92400000  0.12500000  1.0
  Li+  Li36  1  0.08367465  0.42535594  0.62922771  1.0
  Li+  Li37  1  0.08550000  0.42400000  0.12500000  1.0
  Li+  Li38  1  0.58763163  0.42626261  0.62730413  1.0
  Li+  Li39  1  0.58550000  0.42400000  0.12500000  1.0
  Li+  Li40  1  0.33550000  0.07600000  0.37500000  1.0
  Li+  Li41  1  0.33550000  0.07600000  0.87500000  1.0
  Li+  Li42  1  0.83813969  0.07266193  0.37341550  1.0
  Li+  Li43  1  0.83550000  0.07600000  0.87500000  1.0
  Li+  Li44  1  0.41450000  0.57600000  0.37500000  1.0
  Li+  Li45  1  0.41450000  0.57600000  0.87500000  1.0
  Li+  Li46  1  0.91451303  0.57496333  0.37838252  1.0
  Li+  Li47  1  0.91450000  0.57600000  0.87500000  1.0
  Li+  Li48  1  0.74100000  0.69500000  0.35150000  1.0
  Li+  Li49  1  0.74100000  0.69500000  0.85150000  1.0
  Li+  Li50  1  0.00900000  0.19500000  0.39850000  1.0
  Li+  Li51  1  0.00900000  0.19500000  0.89850000  1.0
  Li+  Li52  1  0.50900000  0.19500000  0.39850000  1.0
  Li+  Li53  1  0.50900000  0.19500000  0.89850000  1.0
  Li+  Li54  1  0.25900000  0.30500000  0.60150000  1.0
  Li+  Li55  1  0.25900000  0.30500000  0.10150000  1.0
  Li+  Li56  1  0.99100000  0.80500000  0.64850000  1.0
  Li+  Li57  1  0.98534285  0.80121487  0.14941334  1.0
  Li+  Li58  1  0.75900000  0.30500000  0.64850000  1.0
  Li+  Li59  1  0.75900000  0.30500000  0.14850000  1.0
  Li+  Li60  1  0.49100000  0.80500000  0.60150000  1.0
  Li+  Li61  1  0.49100000  0.80500000  0.10150000  1.0
  Li+  Li62  1  0.24431506  0.69884856  0.39948330  1.0
  Li+  Li63  1  0.24100000  0.69500000  0.89850000  1.0
  Ge4+  Ge64  1  0.07475000  0.91030000  0.37500000  1.0
  Ge4+  Ge65  1  0.07566677  0.91323004  0.87184125  1.0
  Ge4+  Ge66  1  0.57475000  0.91030000  0.37500000  1.0
  Ge4+  Ge67  1  0.57475000  0.91030000  0.87500000  1.0
  Ge4+  Ge68  1  0.17525000  0.41030000  0.37500000  1.0
  Ge4+  Ge69  1  0.17525000  0.41030000  0.87500000  1.0
  Ge4+  Ge70  1  0.67525000  0.41030000  0.37500000  1.0
  Ge4+  Ge71  1  0.67525000  0.41030000  0.87500000  1.0
  Ge4+  Ge72  1  0.42513108  0.09120278  0.62658596  1.0
  Ge4+  Ge73  1  0.42771849  0.08445916  0.11797989  1.0
  Ge4+  Ge74  1  0.92525000  0.08970000  0.62500000  1.0
  Ge4+  Ge75  1  0.92525000  0.08970000  0.12500000  1.0
  Ge4+  Ge76  1  0.32475000  0.58970000  0.62500000  1.0
  Ge4+  Ge77  1  0.32475000  0.58970000  0.12500000  1.0
  Ge4+  Ge78  1  0.82475000  0.58970000  0.62500000  1.0
  Ge4+  Ge79  1  0.82475000  0.58970000  0.12500000  1.0
  S2-  S80  1  0.13463024  0.84580624  0.25646066  1.0
  S2-  S81  1  0.13820000  0.84430000  0.75675000  1.0
  S2-  S82  1  0.63820000  0.84430000  0.25675000  1.0
  S2-  S83  1  0.63820000  0.84430000  0.75675000  1.0
  S2-  S84  1  0.11180000  0.34430000  0.49325000  1.0
  S2-  S85  1  0.11180000  0.34430000  0.99325000  1.0
  S2-  S86  1  0.61180000  0.34430000  0.49325000  1.0
  S2-  S87  1  0.61180000  0.34430000  0.99325000  1.0
  S2-  S88  1  0.36180000  0.15570000  0.50675000  1.0
  S2-  S89  1  0.36176406  0.15634257  0.00645574  1.0
  S2-  S90  1  0.86180000  0.15570000  0.50675000  1.0
  S2-  S91  1  0.85928283  0.15340351  0.00439249  1.0
  S2-  S92  1  0.38820000  0.65570000  0.74325000  1.0
  S2-  S93  1  0.38820000  0.65570000  0.24325000  1.0
  S2-  S94  1  0.88820000  0.65570000  0.74325000  1.0
  S2-  S95  1  0.88399559  0.65965421  0.24853391  1.0
  S2-  S96  1  0.36185125  0.15775146  0.74650111  1.0
  S2-  S97  1  0.36020306  0.15241180  0.24206350  1.0
  S2-  S98  1  0.86180000  0.15570000  0.74325000  1.0
  S2-  S99  1  0.86180000  0.15570000  0.24325000  1.0
  S2-  S100  1  0.38820000  0.65570000  0.50675000  1.0
  S2-  S101  1  0.39039576  0.65872910  0.00382269  1.0
  S2-  S102  1  0.88820000  0.65570000  0.50675000  1.0
  S2-  S103  1  0.88661113  0.65976400  0.00532607  1.0
  S2-  S104  1  0.14114532  0.84221364  0.48755386  1.0
  S2-  S105  1  0.14230331  0.84345893  0.99963763  1.0
  S2-  S106  1  0.63820000  0.84430000  0.49325000  1.0
  S2-  S107  1  0.63788933  0.84858669  0.99240969  1.0
  S2-  S108  1  0.11180000  0.34430000  0.25675000  1.0
  S2-  S109  1  0.11180000  0.34430000  0.75675000  1.0
  S2-  S110  1  0.60877074  0.34605085  0.25935527  1.0
  S2-  S111  1  0.61180000  0.34430000  0.75675000  1.0
  S2-  S112  1  0.14534607  0.58547379  0.62751409  1.0
  S2-  S113  1  0.14665000  0.58570000  0.12500000  1.0
  S2-  S114  1  0.64665000  0.58570000  0.62500000  1.0
  S2-  S115  1  0.64665000  0.58570000  0.12500000  1.0
  S2-  S116  1  0.10335000  0.08570000  0.62500000  1.0
  S2-  S117  1  0.10335000  0.08570000  0.12500000  1.0
  S2-  S118  1  0.60335000  0.08570000  0.62500000  1.0
  S2-  S119  1  0.60335000  0.08570000  0.12500000  1.0
  S2-  S120  1  0.35335000  0.41430000  0.37500000  1.0
  S2-  S121  1  0.35335000  0.41430000  0.87500000  1.0
  S2-  S122  1  0.85335000  0.41430000  0.37500000  1.0
  S2-  S123  1  0.85405864  0.41060576  0.87306440  1.0
  S2-  S124  1  0.39665000  0.91430000  0.37500000  1.0
  S2-  S125  1  0.39444291  0.91246903  0.87517006  1.0
  S2-  S126  1  0.89665000  0.91430000  0.37500000  1.0
  S2-  S127  1  0.89665000  0.91430000  0.87500000  1.0
  S2-  S128  1  0.11460000  0.56130000  0.37500000  1.0
  S2-  S129  1  0.11460000  0.56130000  0.87500000  1.0
  S2-  S130  1  0.61460000  0.56130000  0.37500000  1.0
  S2-  S131  1  0.61460000  0.56130000  0.87500000  1.0
  S2-  S132  1  0.13454563  0.06866824  0.37254313  1.0
  S2-  S133  1  0.13172645  0.05647469  0.88147447  1.0
  S2-  S134  1  0.63678735  0.05901033  0.37702811  1.0
  S2-  S135  1  0.63540000  0.06130000  0.87500000  1.0
  S2-  S136  1  0.38540000  0.43870000  0.62500000  1.0
  S2-  S137  1  0.38510243  0.44051913  0.12584875  1.0
  S2-  S138  1  0.88582178  0.43425928  0.62271009  1.0
  S2-  S139  1  0.88540000  0.43870000  0.12500000  1.0
  S2-  S140  1  0.36556940  0.93606234  0.62597503  1.0
  S2-  S141  1  0.36460000  0.93870000  0.12500000  1.0
  S2-  S142  1  0.86460000  0.93870000  0.62500000  1.0
  S2-  S143  1  0.86460000  0.93870000  0.12500000  1.0
