# generated using pymatgen
data_Li4GeS4
_symmetry_space_group_name_H-M   'P 1'
_cell_length_a   15.56715124
_cell_length_b   12.35111985
_cell_length_c   14.12487878
_cell_angle_alpha   90.00000000
_cell_angle_beta   90.00000000
_cell_angle_gamma   90.00000000
_symmetry_Int_Tables_number   1
_chemical_formula_structural   Li4GeS4
_chemical_formula_sum   'Li64 Ge16 S64'
_cell_volume   2715.81517129
_cell_formula_units_Z   16
loop_
 _symmetry_equiv_pos_site_id
 _symmetry_equiv_pos_as_xyz
  1  'x, y, z'
loop_
 _atom_type_symbol
 _atom_type_oxidation_number
  Li+  1.0
  Ge4+  4.0
  S2-  -2.0
loop_
 _atom_site_type_symbol
 _atom_site_label
 _atom_site_symmetry_multiplicity
 _atom_site_fract_x
 _atom_site_fract_y
 _atom_site_fract_z
 _atom_site_occupancy
  Li+  Li0  1  0.75200000  0.57916667  0.33500000  1.0
  Li+  Li1  1  0.25200000  0.57916667  0.33500000  1.0
  Li+  Li2  1  0.75200000  0.07916667  0.33500000  1.0
  Li+  Li3  1  0.25200000  0.07916667  0.33500000  1.0
  Li+  Li4  1  0.99800000  0.50416667  0.83500000  1.0
  Li+  Li5  1  0.49800000  0.50416667  0.83500000  1.0
  Li+  Li6  1  0.99800000  0.00416667  0.83500000  1.0
  Li+  Li7  1  0.49800000  0.00416667  0.83500000  1.0
  Li+  Li8  1  0.50200000  0.25416667  0.66500000  1.0
  Li+  Li9  1  0.00200000  0.25416667  0.66500000  1.0
  Li+  Li10  1  0.50200000  0.75416667  0.66500000  1.0
  Li+  Li11  1  0.00200000  0.75416667  0.66500000  1.0
  Li+  Li12  1  0.74800000  0.32916667  0.16500000  1.0
  Li+  Li13  1  0.24800000  0.32916667  0.16500000  1.0
  Li+  Li14  1  0.74800000  0.82916667  0.16500000  1.0
  Li+  Li15  1  0.24800000  0.82916667  0.16500000  1.0
  Li+  Li16  1  0.74800000  0.25416667  0.66500000  1.0
  Li+  Li17  1  0.24800000  0.25416667  0.66500000  1.0
  Li+  Li18  1  0.74800000  0.75416667  0.66500000  1.0
  Li+  Li19  1  0.24800000  0.75416667  0.66500000  1.0
  Li+  Li20  1  0.50200000  0.32916667  0.16500000  1.0
  Li+  Li21  1  0.00200000  0.32916667  0.16500000  1.0
  Li+  Li22  1  0.50200000  0.82916667  0.16500000  1.0
  Li+  Li23  1  0.00200000  0.82916667  0.16500000  1.0
  Li+  Li24  1  0.99800000  0.57916667  0.33500000  1.0
  Li+  Li25  1  0.49800000  0.57916667  0.33500000  1.0
  Li+  Li26  1  0.99800000  0.07916667  0.33500000  1.0
  Li+  Li27  1  0.49800000  0.07916667  0.33500000  1.0
  Li+  Li28  1  0.75200000  0.50416667  0.83500000  1.0
  Li+  Li29  1  0.25200000  0.50416667  0.83500000  1.0
  Li+  Li30  1  0.75200000  0.00416667  0.83500000  1.0
  Li+  Li31  1  0.25200000  0.00416667  0.83500000  1.0
  Li+  Li32  1  0.87500000  0.50216667  0.07600000  1.0
  Li+  Li33  1  0.37500000  0.50216667  0.07600000  1.0
  Li+  Li34  1  0.87500000  0.00216667  0.07600000  1.0
  Li+  Li35  1  0.37500000  0.00216667  0.07600000  1.0
  Li+  Li36  1  0.87500000  0.58116667  0.57600000  1.0
  Li+  Li37  1  0.37500000  0.58116667  0.57600000  1.0
  Li+  Li38  1  0.87500000  0.08116667  0.57600000  1.0
  Li+  Li39  1  0.37500000  0.08116667  0.57600000  1.0
  Li+  Li40  1  0.62500000  0.33116667  0.92400000  1.0
  Li+  Li41  1  0.12500000  0.33116667  0.92400000  1.0
  Li+  Li42  1  0.62500000  0.83116667  0.92400000  1.0
  Li+  Li43  1  0.12500000  0.83116667  0.92400000  1.0
  Li+  Li44  1  0.62500000  0.25216667  0.42400000  1.0
  Li+  Li45  1  0.12500000  0.25216667  0.42400000  1.0
  Li+  Li46  1  0.62500000  0.75216667  0.42400000  1.0
  Li+  Li47  1  0.12500000  0.75216667  0.42400000  1.0
  Li+  Li48  1  0.60150000  0.92566667  0.30500000  1.0
  Li+  Li49  1  0.10150000  0.92566667  0.30500000  1.0
  Li+  Li50  1  0.64850000  0.65766667  0.80500000  1.0
  Li+  Li51  1  0.14850000  0.65766667  0.80500000  1.0
  Li+  Li52  1  0.64850000  0.15766667  0.80500000  1.0
  Li+  Li53  1  0.14850000  0.15766667  0.80500000  1.0
  Li+  Li54  1  0.85150000  0.40766667  0.69500000  1.0
  Li+  Li55  1  0.35150000  0.40766667  0.69500000  1.0
  Li+  Li56  1  0.89850000  0.67566667  0.19500000  1.0
  Li+  Li57  1  0.39850000  0.67566667  0.19500000  1.0
  Li+  Li58  1  0.89850000  0.90766667  0.69500000  1.0
  Li+  Li59  1  0.39850000  0.90766667  0.69500000  1.0
  Li+  Li60  1  0.85150000  0.17566667  0.19500000  1.0
  Li+  Li61  1  0.35150000  0.17566667  0.19500000  1.0
  Li+  Li62  1  0.64850000  0.42566667  0.30500000  1.0
  Li+  Li63  1  0.14850000  0.42566667  0.30500000  1.0
  Ge4+  Ge64  1  0.62500000  0.59191667  0.08970000  1.0
  Ge4+  Ge65  1  0.12500000  0.59191667  0.08970000  1.0
  Ge4+  Ge66  1  0.62500000  0.09191667  0.08970000  1.0
  Ge4+  Ge67  1  0.12500000  0.09191667  0.08970000  1.0
  Ge4+  Ge68  1  0.62500000  0.49141667  0.58970000  1.0
  Ge4+  Ge69  1  0.12500000  0.49141667  0.58970000  1.0
  Ge4+  Ge70  1  0.62500000  0.99141667  0.58970000  1.0
  Ge4+  Ge71  1  0.12500000  0.99141667  0.58970000  1.0
  Ge4+  Ge72  1  0.87500000  0.24141667  0.91030000  1.0
  Ge4+  Ge73  1  0.37500000  0.24141667  0.91030000  1.0
  Ge4+  Ge74  1  0.87500000  0.74141667  0.91030000  1.0
  Ge4+  Ge75  1  0.37500000  0.74141667  0.91030000  1.0
  Ge4+  Ge76  1  0.87500000  0.34191667  0.41030000  1.0
  Ge4+  Ge77  1  0.37500000  0.34191667  0.41030000  1.0
  Ge4+  Ge78  1  0.87500000  0.84191667  0.41030000  1.0
  Ge4+  Ge79  1  0.37500000  0.84191667  0.41030000  1.0
  S2-  S80  1  0.50675000  0.52846667  0.15570000  1.0
  S2-  S81  1  0.00675000  0.52846667  0.15570000  1.0
  S2-  S82  1  0.50675000  0.02846667  0.15570000  1.0
  S2-  S83  1  0.00675000  0.02846667  0.15570000  1.0
  S2-  S84  1  0.74325000  0.55486667  0.65570000  1.0
  S2-  S85  1  0.24325000  0.55486667  0.65570000  1.0
  S2-  S86  1  0.74325000  0.05486667  0.65570000  1.0
  S2-  S87  1  0.24325000  0.05486667  0.65570000  1.0
  S2-  S88  1  0.75675000  0.30486667  0.84430000  1.0
  S2-  S89  1  0.25675000  0.30486667  0.84430000  1.0
  S2-  S90  1  0.75675000  0.80486667  0.84430000  1.0
  S2-  S91  1  0.25675000  0.80486667  0.84430000  1.0
  S2-  S92  1  0.99325000  0.27846667  0.34430000  1.0
  S2-  S93  1  0.49325000  0.27846667  0.34430000  1.0
  S2-  S94  1  0.99325000  0.77846667  0.34430000  1.0
  S2-  S95  1  0.49325000  0.77846667  0.34430000  1.0
  S2-  S96  1  0.99325000  0.30486667  0.84430000  1.0
  S2-  S97  1  0.49325000  0.30486667  0.84430000  1.0
  S2-  S98  1  0.99325000  0.80486667  0.84430000  1.0
  S2-  S99  1  0.49325000  0.80486667  0.84430000  1.0
  S2-  S100  1  0.75675000  0.27846667  0.34430000  1.0
  S2-  S101  1  0.25675000  0.27846667  0.34430000  1.0
  S2-  S102  1  0.75675000  0.77846667  0.34430000  1.0
  S2-  S103  1  0.25675000  0.77846667  0.34430000  1.0
  S2-  S104  1  0.74325000  0.52846667  0.15570000  1.0
  S2-  S105  1  0.24325000  0.52846667  0.15570000  1.0
  S2-  S106  1  0.74325000  0.02846667  0.15570000  1.0
  S2-  S107  1  0.24325000  0.02846667  0.15570000  1.0
  S2-  S108  1  0.50675000  0.55486667  0.65570000  1.0
  S2-  S109  1  0.00675000  0.55486667  0.65570000  1.0
  S2-  S110  1  0.50675000  0.05486667  0.65570000  1.0
  S2-  S111  1  0.00675000  0.05486667  0.65570000  1.0
  S2-  S112  1  0.87500000  0.52001667  0.41430000  1.0
  S2-  S113  1  0.37500000  0.52001667  0.41430000  1.0
  S2-  S114  1  0.87500000  0.02001667  0.41430000  1.0
  S2-  S115  1  0.37500000  0.02001667  0.41430000  1.0
  S2-  S116  1  0.87500000  0.56331667  0.91430000  1.0
  S2-  S117  1  0.37500000  0.56331667  0.91430000  1.0
  S2-  S118  1  0.87500000  0.06331667  0.91430000  1.0
  S2-  S119  1  0.37500000  0.06331667  0.91430000  1.0
  S2-  S120  1  0.62500000  0.31331667  0.58570000  1.0
  S2-  S121  1  0.12500000  0.31331667  0.58570000  1.0
  S2-  S122  1  0.62500000  0.81331667  0.58570000  1.0
  S2-  S123  1  0.12500000  0.81331667  0.58570000  1.0
  S2-  S124  1  0.62500000  0.27001667  0.08570000  1.0
  S2-  S125  1  0.12500000  0.27001667  0.08570000  1.0
  S2-  S126  1  0.62500000  0.77001667  0.08570000  1.0
  S2-  S127  1  0.12500000  0.77001667  0.08570000  1.0
  S2-  S128  1  0.62500000  0.55206667  0.43870000  1.0
  S2-  S129  1  0.12500000  0.55206667  0.43870000  1.0
  S2-  S130  1  0.62500000  0.05206667  0.43870000  1.0
  S2-  S131  1  0.12500000  0.05206667  0.43870000  1.0
  S2-  S132  1  0.62500000  0.53126667  0.93870000  1.0
  S2-  S133  1  0.12500000  0.53126667  0.93870000  1.0
  S2-  S134  1  0.62500000  0.03126667  0.93870000  1.0
  S2-  S135  1  0.12500000  0.03126667  0.93870000  1.0
  S2-  S136  1  0.87500000  0.28126667  0.56130000  1.0
  S2-  S137  1  0.37500000  0.28126667  0.56130000  1.0
  S2-  S138  1  0.87500000  0.78126667  0.56130000  1.0
  S2-  S139  1  0.37500000  0.78126667  0.56130000  1.0
  S2-  S140  1  0.87500000  0.30206667  0.06130000  1.0
  S2-  S141  1  0.37500000  0.30206667  0.06130000  1.0
  S2-  S142  1  0.87500000  0.80206667  0.06130000  1.0
  S2-  S143  1  0.37500000  0.80206667  0.06130000  1.0
