# generated using pymatgen
data_Li4GeS4
_symmetry_space_group_name_H-M   'P 1'
_cell_length_a   12.29946000
_cell_length_b   15.50204000
_cell_length_c   14.06580000
_cell_angle_alpha   90.00000000
_cell_angle_beta   90.00000000
_cell_angle_gamma   90.00000000
_symmetry_Int_Tables_number   1
_chemical_formula_structural   Li4GeS4
_chemical_formula_sum   'Li64 Ge16 S64'
_cell_volume   2681.87996281
_cell_formula_units_Z   16
loop_
 _symmetry_equiv_pos_site_id
 _symmetry_equiv_pos_as_xyz
  1  'x, y, z'
loop_
 _atom_type_symbol
 _atom_type_oxidation_number
  Li+  1.0
  Ge4+  4.0
  S2-  -2.0
loop_
 _atom_site_type_symbol
 _atom_site_label
 _atom_site_symmetry_multiplicity
 _atom_site_fract_x
 _atom_site_fract_y
 _atom_site_fract_z
 _atom_site_occupancy
  Li+  Li1  1  0.08750000  0.24800000  0.33500000  1.0
  Li+  Li1  1  0.08750000  0.74800000  0.33500000  1.0
  Li+  Li1  1  0.58750000  0.24800000  0.33500000  1.0
  Li+  Li1  1  0.58750000  0.74800000  0.33500000  1.0
  Li+  Li1  1  0.16250000  0.00200000  0.83500000  1.0
  Li+  Li1  1  0.16250000  0.50200000  0.83500000  1.0
  Li+  Li1  1  0.66250000  0.00200000  0.83500000  1.0
  Li+  Li1  1  0.66250000  0.50200000  0.83500000  1.0
  Li+  Li1  1  0.41250000  0.49800000  0.66500000  1.0
  Li+  Li1  1  0.41250000  0.99800000  0.66500000  1.0
  Li+  Li1  1  0.91250000  0.49800000  0.66500000  1.0
  Li+  Li1  1  0.91250000  0.99800000  0.66500000  1.0
  Li+  Li1  1  0.33750000  0.25200000  0.16500000  1.0
  Li+  Li1  1  0.33750000  0.75200000  0.16500000  1.0
  Li+  Li1  1  0.83750000  0.25200000  0.16500000  1.0
  Li+  Li1  1  0.83750000  0.75200000  0.16500000  1.0
  Li+  Li1  1  0.41250000  0.25200000  0.66500000  1.0
  Li+  Li1  1  0.41250000  0.75200000  0.66500000  1.0
  Li+  Li1  1  0.91250000  0.25200000  0.66500000  1.0
  Li+  Li1  1  0.91250000  0.75200000  0.66500000  1.0
  Li+  Li1  1  0.33750000  0.49800000  0.16500000  1.0
  Li+  Li1  1  0.33750000  0.99800000  0.16500000  1.0
  Li+  Li1  1  0.83750000  0.49800000  0.16500000  1.0
  Li+  Li1  1  0.83750000  0.99800000  0.16500000  1.0
  Li+  Li1  1  0.08750000  0.00200000  0.33500000  1.0
  Li+  Li1  1  0.08750000  0.50200000  0.33500000  1.0
  Li+  Li1  1  0.58750000  0.00200000  0.33500000  1.0
  Li+  Li1  1  0.58750000  0.50200000  0.33500000  1.0
  Li+  Li1  1  0.16250000  0.24800000  0.83500000  1.0
  Li+  Li1  1  0.16250000  0.74800000  0.83500000  1.0
  Li+  Li1  1  0.66250000  0.24800000  0.83500000  1.0
  Li+  Li1  1  0.66250000  0.74800000  0.83500000  1.0
  Li+  Li2  1  0.16450000  0.12500000  0.07600000  1.0
  Li+  Li2  1  0.16450000  0.62500000  0.07600000  1.0
  Li+  Li2  1  0.66450000  0.12500000  0.07600000  1.0
  Li+  Li2  1  0.66450000  0.62500000  0.07600000  1.0
  Li+  Li2  1  0.08550000  0.12500000  0.57600000  1.0
  Li+  Li2  1  0.08550000  0.62500000  0.57600000  1.0
  Li+  Li2  1  0.58550000  0.12500000  0.57600000  1.0
  Li+  Li2  1  0.58550000  0.62500000  0.57600000  1.0
  Li+  Li2  1  0.33550000  0.37500000  0.92400000  1.0
  Li+  Li2  1  0.33550000  0.87500000  0.92400000  1.0
  Li+  Li2  1  0.83550000  0.37500000  0.92400000  1.0
  Li+  Li2  1  0.83550000  0.87500000  0.92400000  1.0
  Li+  Li2  1  0.41450000  0.37500000  0.42400000  1.0
  Li+  Li2  1  0.41450000  0.87500000  0.42400000  1.0
  Li+  Li2  1  0.91450000  0.37500000  0.42400000  1.0
  Li+  Li2  1  0.91450000  0.87500000  0.42400000  1.0
  Li+  Li24  1  0.74100000  0.39850000  0.30500000  1.0
  Li+  Li24  1  0.74100000  0.89850000  0.30500000  1.0
  Li+  Li25  1  0.00900000  0.35150000  0.80500000  1.0
  Li+  Li25  1  0.00900000  0.85150000  0.80500000  1.0
  Li+  Li26  1  0.50900000  0.35150000  0.80500000  1.0
  Li+  Li26  1  0.50900000  0.85150000  0.80500000  1.0
  Li+  Li27  1  0.25900000  0.14850000  0.69500000  1.0
  Li+  Li27  1  0.25900000  0.64850000  0.69500000  1.0
  Li+  Li28  1  0.99100000  0.10150000  0.19500000  1.0
  Li+  Li28  1  0.99100000  0.60150000  0.19500000  1.0
  Li+  Li29  1  0.75900000  0.10150000  0.69500000  1.0
  Li+  Li29  1  0.75900000  0.60150000  0.69500000  1.0
  Li+  Li30  1  0.49100000  0.14850000  0.19500000  1.0
  Li+  Li30  1  0.49100000  0.64850000  0.19500000  1.0
  Li+  Li31  1  0.24100000  0.35150000  0.30500000  1.0
  Li+  Li31  1  0.24100000  0.85150000  0.30500000  1.0
  Ge4+  Ge1  1  0.07475000  0.37500000  0.08970000  1.0
  Ge4+  Ge1  1  0.07475000  0.87500000  0.08970000  1.0
  Ge4+  Ge1  1  0.57475000  0.37500000  0.08970000  1.0
  Ge4+  Ge1  1  0.57475000  0.87500000  0.08970000  1.0
  Ge4+  Ge1  1  0.17525000  0.37500000  0.58970000  1.0
  Ge4+  Ge1  1  0.17525000  0.87500000  0.58970000  1.0
  Ge4+  Ge1  1  0.67525000  0.37500000  0.58970000  1.0
  Ge4+  Ge1  1  0.67525000  0.87500000  0.58970000  1.0
  Ge4+  Ge1  1  0.42525000  0.12500000  0.91030000  1.0
  Ge4+  Ge1  1  0.42525000  0.62500000  0.91030000  1.0
  Ge4+  Ge1  1  0.92525000  0.12500000  0.91030000  1.0
  Ge4+  Ge1  1  0.92525000  0.62500000  0.91030000  1.0
  Ge4+  Ge1  1  0.32475000  0.12500000  0.41030000  1.0
  Ge4+  Ge1  1  0.32475000  0.62500000  0.41030000  1.0
  Ge4+  Ge1  1  0.82475000  0.12500000  0.41030000  1.0
  Ge4+  Ge1  1  0.82475000  0.62500000  0.41030000  1.0
  S2-  S1  1  0.13820000  0.49325000  0.15570000  1.0
  S2-  S1  1  0.13820000  0.99325000  0.15570000  1.0
  S2-  S1  1  0.63820000  0.49325000  0.15570000  1.0
  S2-  S1  1  0.63820000  0.99325000  0.15570000  1.0
  S2-  S1  1  0.11180000  0.25675000  0.65570000  1.0
  S2-  S1  1  0.11180000  0.75675000  0.65570000  1.0
  S2-  S1  1  0.61180000  0.25675000  0.65570000  1.0
  S2-  S1  1  0.61180000  0.75675000  0.65570000  1.0
  S2-  S1  1  0.36180000  0.24325000  0.84430000  1.0
  S2-  S1  1  0.36180000  0.74325000  0.84430000  1.0
  S2-  S1  1  0.86180000  0.24325000  0.84430000  1.0
  S2-  S1  1  0.86180000  0.74325000  0.84430000  1.0
  S2-  S1  1  0.38820000  0.00675000  0.34430000  1.0
  S2-  S1  1  0.38820000  0.50675000  0.34430000  1.0
  S2-  S1  1  0.88820000  0.00675000  0.34430000  1.0
  S2-  S1  1  0.88820000  0.50675000  0.34430000  1.0
  S2-  S1  1  0.36180000  0.00675000  0.84430000  1.0
  S2-  S1  1  0.36180000  0.50675000  0.84430000  1.0
  S2-  S1  1  0.86180000  0.00675000  0.84430000  1.0
  S2-  S1  1  0.86180000  0.50675000  0.84430000  1.0
  S2-  S1  1  0.38820000  0.24325000  0.34430000  1.0
  S2-  S1  1  0.38820000  0.74325000  0.34430000  1.0
  S2-  S1  1  0.88820000  0.24325000  0.34430000  1.0
  S2-  S1  1  0.88820000  0.74325000  0.34430000  1.0
  S2-  S1  1  0.13820000  0.25675000  0.15570000  1.0
  S2-  S1  1  0.13820000  0.75675000  0.15570000  1.0
  S2-  S1  1  0.63820000  0.25675000  0.15570000  1.0
  S2-  S1  1  0.63820000  0.75675000  0.15570000  1.0
  S2-  S1  1  0.11180000  0.49325000  0.65570000  1.0
  S2-  S1  1  0.11180000  0.99325000  0.65570000  1.0
  S2-  S1  1  0.61180000  0.49325000  0.65570000  1.0
  S2-  S1  1  0.61180000  0.99325000  0.65570000  1.0
  S2-  S2  1  0.14665000  0.12500000  0.41430000  1.0
  S2-  S2  1  0.14665000  0.62500000  0.41430000  1.0
  S2-  S2  1  0.64665000  0.12500000  0.41430000  1.0
  S2-  S2  1  0.64665000  0.62500000  0.41430000  1.0
  S2-  S2  1  0.10335000  0.12500000  0.91430000  1.0
  S2-  S2  1  0.10335000  0.62500000  0.91430000  1.0
  S2-  S2  1  0.60335000  0.12500000  0.91430000  1.0
  S2-  S2  1  0.60335000  0.62500000  0.91430000  1.0
  S2-  S2  1  0.35335000  0.37500000  0.58570000  1.0
  S2-  S2  1  0.35335000  0.87500000  0.58570000  1.0
  S2-  S2  1  0.85335000  0.37500000  0.58570000  1.0
  S2-  S2  1  0.85335000  0.87500000  0.58570000  1.0
  S2-  S2  1  0.39665000  0.37500000  0.08570000  1.0
  S2-  S2  1  0.39665000  0.87500000  0.08570000  1.0
  S2-  S2  1  0.89665000  0.37500000  0.08570000  1.0
  S2-  S2  1  0.89665000  0.87500000  0.08570000  1.0
  S2-  S3  1  0.11460000  0.37500000  0.43870000  1.0
  S2-  S3  1  0.11460000  0.87500000  0.43870000  1.0
  S2-  S3  1  0.61460000  0.37500000  0.43870000  1.0
  S2-  S3  1  0.61460000  0.87500000  0.43870000  1.0
  S2-  S3  1  0.13540000  0.37500000  0.93870000  1.0
  S2-  S3  1  0.13540000  0.87500000  0.93870000  1.0
  S2-  S3  1  0.63540000  0.37500000  0.93870000  1.0
  S2-  S3  1  0.63540000  0.87500000  0.93870000  1.0
  S2-  S3  1  0.38540000  0.12500000  0.56130000  1.0
  S2-  S3  1  0.38540000  0.62500000  0.56130000  1.0
  S2-  S3  1  0.88540000  0.12500000  0.56130000  1.0
  S2-  S3  1  0.88540000  0.62500000  0.56130000  1.0
  S2-  S3  1  0.36460000  0.12500000  0.06130000  1.0
  S2-  S3  1  0.36460000  0.62500000  0.06130000  1.0
  S2-  S3  1  0.86460000  0.12500000  0.06130000  1.0
  S2-  S3  1  0.86460000  0.62500000  0.06130000  1.0
