# generated using pymatgen
data_Li13SiP3O16
_symmetry_space_group_name_H-M   'P 1'
_cell_length_a   9.94062000
_cell_length_b   12.23050000
_cell_length_c   10.52587000
_cell_angle_alpha   90.00000000
_cell_angle_beta   90.00000000
_cell_angle_gamma   90.00000000
_symmetry_Int_Tables_number   1
_chemical_formula_structural   Li13SiP3O16
_chemical_formula_sum   'Li52 Si4 P12 O64'
_cell_volume   1279.72214789
_cell_formula_units_Z   4
loop_
 _symmetry_equiv_pos_site_id
 _symmetry_equiv_pos_as_xyz
  1  'x, y, z'
loop_
 _atom_type_symbol
 _atom_type_oxidation_number
  Li+  1.0
  Si4+  4.0
  P5+  5.0
  O2-  -2.0
loop_
 _atom_site_type_symbol
 _atom_site_label
 _atom_site_symmetry_multiplicity
 _atom_site_fract_x
 _atom_site_fract_y
 _atom_site_fract_z
 _atom_site_occupancy
  Li+  Li0  1  0.79500000  0.12500000  0.73800000  1.0
  Li+  Li1  1  0.21250000  0.26600000  0.04000000  1.0
  Li+  Li2  1  0.03750000  0.48400000  0.54000000  1.0
  Li+  Li3  1  0.07000000  0.37500000  0.89600000  1.0
  Li+  Li4  1  0.93000000  0.62500000  0.10400000  1.0
  Li+  Li5  1  0.15505000  0.99965000  0.16410000  1.0
  Li+  Li6  1  0.65505000  0.49965000  0.16410000  1.0
  Li+  Li7  1  0.65505000  0.99965000  0.16410000  1.0
  Li+  Li8  1  0.09495000  0.25035000  0.66410000  1.0
  Li+  Li9  1  0.09495000  0.75035000  0.66410000  1.0
  Li+  Li10  1  0.59495000  0.25035000  0.66410000  1.0
  Li+  Li11  1  0.59495000  0.75035000  0.66410000  1.0
  Li+  Li12  1  0.34495000  0.24965000  0.83590000  1.0
  Li+  Li13  1  0.34495000  0.74965000  0.83590000  1.0
  Li+  Li14  1  0.84495000  0.24965000  0.83590000  1.0
  Li+  Li15  1  0.84495000  0.74965000  0.83590000  1.0
  Li+  Li16  1  0.40505000  0.50035000  0.33590000  1.0
  Li+  Li17  1  0.90505000  0.00035000  0.33590000  1.0
  Li+  Li18  1  0.90505000  0.50035000  0.33590000  1.0
  Li+  Li19  1  0.34495000  0.50035000  0.83590000  1.0
  Li+  Li20  1  0.84495000  0.00035000  0.83590000  1.0
  Li+  Li21  1  0.40505000  0.24965000  0.33590000  1.0
  Li+  Li22  1  0.40505000  0.74965000  0.33590000  1.0
  Li+  Li23  1  0.90505000  0.24965000  0.33590000  1.0
  Li+  Li24  1  0.90505000  0.74965000  0.33590000  1.0
  Li+  Li25  1  0.15505000  0.25035000  0.16410000  1.0
  Li+  Li26  1  0.15505000  0.75035000  0.16410000  1.0
  Li+  Li27  1  0.65505000  0.25035000  0.16410000  1.0
  Li+  Li28  1  0.65505000  0.75035000  0.16410000  1.0
  Li+  Li29  1  0.09495000  0.49965000  0.66410000  1.0
  Li+  Li30  1  0.09495000  0.99965000  0.66410000  1.0
  Li+  Li31  1  0.59495000  0.99965000  0.66410000  1.0
  Li+  Li32  1  0.15200000  0.37500000  0.92660000  1.0
  Li+  Li33  1  0.15200000  0.87500000  0.92660000  1.0
  Li+  Li34  1  0.65200000  0.37500000  0.92660000  1.0
  Li+  Li35  1  0.09800000  0.37500000  0.42660000  1.0
  Li+  Li36  1  0.09800000  0.87500000  0.42660000  1.0
  Li+  Li37  1  0.59800000  0.37500000  0.42660000  1.0
  Li+  Li38  1  0.59800000  0.87500000  0.42660000  1.0
  Li+  Li39  1  0.34800000  0.62500000  0.07340000  1.0
  Li+  Li40  1  0.84800000  0.12500000  0.07340000  1.0
  Li+  Li41  1  0.84800000  0.62500000  0.07340000  1.0
  Li+  Li42  1  0.40200000  0.12500000  0.57340000  1.0
  Li+  Li43  1  0.40200000  0.62500000  0.57340000  1.0
  Li+  Li44  1  0.90200000  0.12500000  0.57340000  1.0
  Li+  Li45  1  0.90200000  0.62500000  0.57340000  1.0
  Li+  Li46  1  0.42000000  0.77650000  0.85300000  1.0
  Li+  Li47  1  0.33000000  0.97350000  0.35300000  1.0
  Li+  Li48  1  0.83000000  0.47350000  0.35300000  1.0
  Li+  Li49  1  0.58000000  0.02650000  0.14700000  1.0
  Li+  Li50  1  0.42000000  0.97350000  0.85300000  1.0
  Li+  Li51  1  0.92000000  0.47350000  0.85300000  1.0
  Si4+  Si52  1  0.40935000  0.87500000  0.08840000  1.0
  Si4+  Si53  1  0.84065000  0.37500000  0.58840000  1.0
  Si4+  Si54  1  0.84065000  0.87500000  0.58840000  1.0
  Si4+  Si55  1  0.09065000  0.62500000  0.91160000  1.0
  P5+  P56  1  0.40935000  0.37500000  0.08840000  1.0
  P5+  P57  1  0.90935000  0.37500000  0.08840000  1.0
  P5+  P58  1  0.90935000  0.87500000  0.08840000  1.0
  P5+  P59  1  0.34065000  0.37500000  0.58840000  1.0
  P5+  P60  1  0.34065000  0.87500000  0.58840000  1.0
  P5+  P61  1  0.09065000  0.12500000  0.91160000  1.0
  P5+  P62  1  0.59065000  0.12500000  0.91160000  1.0
  P5+  P63  1  0.59065000  0.62500000  0.91160000  1.0
  P5+  P64  1  0.15935000  0.12500000  0.41160000  1.0
  P5+  P65  1  0.15935000  0.62500000  0.41160000  1.0
  P5+  P66  1  0.65935000  0.12500000  0.41160000  1.0
  P5+  P67  1  0.65935000  0.62500000  0.41160000  1.0
  O2-  O1  1  0.06660000  0.37500000  0.09000000  1.0
  O2-  O1  1  0.06660000  0.87500000  0.09000000  1.0
  O2-  O1  1  0.56660000  0.37500000  0.09000000  1.0
  O2-  O1  1  0.56660000  0.87500000  0.09000000  1.0
  O2-  O1  1  0.18340000  0.37500000  0.59000000  1.0
  O2-  O1  1  0.18340000  0.87500000  0.59000000  1.0
  O2-  O1  1  0.68340000  0.37500000  0.59000000  1.0
  O2-  O1  1  0.68340000  0.87500000  0.59000000  1.0
  O2-  O1  1  0.43340000  0.12500000  0.91000000  1.0
  O2-  O1  1  0.43340000  0.62500000  0.91000000  1.0
  O2-  O1  1  0.93340000  0.12500000  0.91000000  1.0
  O2-  O1  1  0.93340000  0.62500000  0.91000000  1.0
  O2-  O1  1  0.31660000  0.12500000  0.41000000  1.0
  O2-  O1  1  0.31660000  0.62500000  0.41000000  1.0
  O2-  O1  1  0.81660000  0.12500000  0.41000000  1.0
  O2-  O1  1  0.81660000  0.62500000  0.41000000  1.0
  O2-  O2  1  0.35635000  0.47925000  0.15860000  1.0
  O2-  O2  1  0.35635000  0.97925000  0.15860000  1.0
  O2-  O2  1  0.85635000  0.47925000  0.15860000  1.0
  O2-  O2  1  0.85635000  0.97925000  0.15860000  1.0
  O2-  O2  1  0.39365000  0.27075000  0.65860000  1.0
  O2-  O2  1  0.39365000  0.77075000  0.65860000  1.0
  O2-  O2  1  0.89365000  0.27075000  0.65860000  1.0
  O2-  O2  1  0.89365000  0.77075000  0.65860000  1.0
  O2-  O2  1  0.14365000  0.22925000  0.84140000  1.0
  O2-  O2  1  0.14365000  0.72925000  0.84140000  1.0
  O2-  O2  1  0.64365000  0.22925000  0.84140000  1.0
  O2-  O2  1  0.64365000  0.72925000  0.84140000  1.0
  O2-  O2  1  0.10635000  0.02075000  0.34140000  1.0
  O2-  O2  1  0.10635000  0.52075000  0.34140000  1.0
  O2-  O2  1  0.60635000  0.02075000  0.34140000  1.0
  O2-  O2  1  0.60635000  0.52075000  0.34140000  1.0
  O2-  O2  1  0.14365000  0.02075000  0.84140000  1.0
  O2-  O2  1  0.14365000  0.52075000  0.84140000  1.0
  O2-  O2  1  0.64365000  0.02075000  0.84140000  1.0
  O2-  O2  1  0.64365000  0.52075000  0.84140000  1.0
  O2-  O2  1  0.10635000  0.22925000  0.34140000  1.0
  O2-  O2  1  0.10635000  0.72925000  0.34140000  1.0
  O2-  O2  1  0.60635000  0.22925000  0.34140000  1.0
  O2-  O2  1  0.60635000  0.72925000  0.34140000  1.0
  O2-  O2  1  0.35635000  0.27075000  0.15860000  1.0
  O2-  O2  1  0.35635000  0.77075000  0.15860000  1.0
  O2-  O2  1  0.85635000  0.27075000  0.15860000  1.0
  O2-  O2  1  0.85635000  0.77075000  0.15860000  1.0
  O2-  O2  1  0.39365000  0.47925000  0.65860000  1.0
  O2-  O2  1  0.39365000  0.97925000  0.65860000  1.0
  O2-  O2  1  0.89365000  0.47925000  0.65860000  1.0
  O2-  O2  1  0.89365000  0.97925000  0.65860000  1.0
  O2-  O3  1  0.39245000  0.37500000  0.44730000  1.0
  O2-  O3  1  0.39245000  0.87500000  0.44730000  1.0
  O2-  O3  1  0.89245000  0.37500000  0.44730000  1.0
  O2-  O3  1  0.89245000  0.87500000  0.44730000  1.0
  O2-  O3  1  0.35755000  0.37500000  0.94730000  1.0
  O2-  O3  1  0.35755000  0.87500000  0.94730000  1.0
  O2-  O3  1  0.85755000  0.37500000  0.94730000  1.0
  O2-  O3  1  0.85755000  0.87500000  0.94730000  1.0
  O2-  O3  1  0.10755000  0.12500000  0.55270000  1.0
  O2-  O3  1  0.10755000  0.62500000  0.55270000  1.0
  O2-  O3  1  0.60755000  0.12500000  0.55270000  1.0
  O2-  O3  1  0.60755000  0.62500000  0.55270000  1.0
  O2-  O3  1  0.14245000  0.12500000  0.05270000  1.0
  O2-  O3  1  0.14245000  0.62500000  0.05270000  1.0
  O2-  O3  1  0.64245000  0.12500000  0.05270000  1.0
  O2-  O3  1  0.64245000  0.62500000  0.05270000  1.0
