# generated using pymatgen
data_Li7Ge3PS12
_symmetry_space_group_name_H-M   'P 1'
_cell_length_a   27.72401640
_cell_length_b   13.86200820
_cell_length_c   13.86200820
_cell_angle_alpha   60.00000000
_cell_angle_beta   120.00000000
_cell_angle_gamma   120.00000000
_symmetry_Int_Tables_number   1
_chemical_formula_structural   Li7Ge3PS12
_chemical_formula_sum   'Li56 Ge24 P8 S96'
_cell_volume   3766.98119409
_cell_formula_units_Z   8
loop_
 _symmetry_equiv_pos_site_id
 _symmetry_equiv_pos_as_xyz
  1  'x, y, z'
loop_
 _atom_type_symbol
 _atom_type_oxidation_number
  Li+  1.0
  Ge4+  4.0
  P5+  5.0
  S2-  -2.0
loop_
 _atom_site_type_symbol
 _atom_site_label
 _atom_site_symmetry_multiplicity
 _atom_site_fract_x
 _atom_site_fract_y
 _atom_site_fract_z
 _atom_site_occupancy
  Li+  Li0  1  0.16287500  0.50700000  0.56175000  1.0
  Li+  Li1  1  0.66287500  0.50700000  0.56175000  1.0
  Li+  Li2  1  0.16287500  0.00700000  0.56175000  1.0
  Li+  Li3  1  0.66287500  0.00700000  0.56175000  1.0
  Li+  Li4  1  0.16743842  0.50944718  0.06108137  1.0
  Li+  Li5  1  0.66287500  0.50700000  0.06175000  1.0
  Li+  Li6  1  0.41287500  0.50700000  0.06175000  1.0
  Li+  Li7  1  0.91287500  0.50700000  0.06175000  1.0
  Li+  Li8  1  0.16287500  0.00700000  0.75700000  1.0
  Li+  Li9  1  0.66287500  0.00700000  0.75700000  1.0
  Li+  Li10  1  0.41287500  0.00700000  0.75700000  1.0
  Li+  Li11  1  0.91287500  0.00700000  0.75700000  1.0
  Li+  Li12  1  0.16287500  0.31175000  0.25700000  1.0
  Li+  Li13  1  0.66287500  0.31175000  0.25700000  1.0
  Li+  Li14  1  0.41287500  0.81175000  0.25700000  1.0
  Li+  Li15  1  0.91257266  0.81151635  0.25436903  1.0
  Li+  Li16  1  0.40954611  0.31080230  0.75398298  1.0
  Li+  Li17  1  0.91287500  0.31175000  0.75700000  1.0
  Li+  Li18  1  0.09412500  0.50700000  0.42425000  1.0
  Li+  Li19  1  0.59412500  0.50700000  0.42425000  1.0
  Li+  Li20  1  0.09412500  0.00700000  0.92425000  1.0
  Li+  Li21  1  0.59412500  0.00700000  0.92425000  1.0
  Li+  Li22  1  0.34399389  0.00808763  0.42261849  1.0
  Li+  Li23  1  0.84412500  0.00700000  0.42425000  1.0
  Li+  Li24  1  0.24650000  0.81175000  0.42425000  1.0
  Li+  Li25  1  0.74650000  0.81175000  0.42425000  1.0
  Li+  Li26  1  0.49650000  0.00700000  0.42425000  1.0
  Li+  Li27  1  0.99650000  0.00700000  0.42425000  1.0
  Li+  Li28  1  0.49650000  0.17425000  0.25700000  1.0
  Li+  Li29  1  0.99650000  0.17425000  0.25700000  1.0
  Li+  Li30  1  0.24650000  0.67425000  0.56175000  1.0
  Li+  Li31  1  0.74650000  0.67425000  0.56175000  1.0
  Li+  Li32  1  0.49650000  0.67425000  0.06175000  1.0
  Li+  Li33  1  0.99431644  0.67745852  0.06016299  1.0
  Li+  Li34  1  0.09412500  0.67425000  0.25700000  1.0
  Li+  Li35  1  0.59214837  0.67325128  0.25532221  1.0
  Li+  Li36  1  0.09780989  0.67138489  0.75593985  1.0
  Li+  Li37  1  0.59412500  0.67425000  0.75700000  1.0
  Li+  Li38  1  0.09412500  0.17425000  0.75700000  1.0
  Li+  Li39  1  0.59412500  0.17425000  0.75700000  1.0
  Li+  Li40  1  0.34412500  0.67425000  0.75700000  1.0
  Li+  Li41  1  0.84153045  0.67236554  0.75545879  1.0
  Li+  Li42  1  0.34412500  0.17425000  0.75700000  1.0
  Li+  Li43  1  0.84412500  0.17425000  0.75700000  1.0
  Li+  Li44  1  0.24650000  0.31175000  0.25700000  1.0
  Li+  Li45  1  0.74650000  0.31175000  0.25700000  1.0
  Li+  Li46  1  0.49650000  0.81175000  0.25700000  1.0
  Li+  Li47  1  0.99650000  0.81175000  0.25700000  1.0
  Li+  Li48  1  0.09412500  0.00700000  0.25700000  1.0
  Li+  Li49  1  0.59412500  0.00700000  0.25700000  1.0
  Li+  Li50  1  0.34412500  0.50700000  0.75700000  1.0
  Li+  Li51  1  0.84077225  0.50450710  0.76001931  1.0
  Li+  Li52  1  0.24650000  0.00700000  0.56175000  1.0
  Li+  Li53  1  0.74554723  0.00533129  0.56398535  1.0
  Li+  Li54  1  0.24650000  0.50700000  0.06175000  1.0
  Li+  Li55  1  0.74691211  0.50535718  0.06978139  1.0
  Ge4+  Ge56  1  0.12500000  0.25000000  0.50000000  1.0
  Ge4+  Ge57  1  0.62500000  0.25000000  0.50000000  1.0
  Ge4+  Ge58  1  0.12218480  0.24587001  0.99940311  1.0
  Ge4+  Ge59  1  0.62500000  0.25000000  0.00000000  1.0
  Ge4+  Ge60  1  0.37366814  0.24853255  0.49944111  1.0
  Ge4+  Ge61  1  0.87500000  0.25000000  0.50000000  1.0
  Ge4+  Ge62  1  0.37696075  0.25222362  0.99416080  1.0
  Ge4+  Ge63  1  0.87500000  0.25000000  0.00000000  1.0
  Ge4+  Ge64  1  0.25072887  0.80864790  0.92672789  1.0
  Ge4+  Ge65  1  0.74650000  0.81175000  0.92425000  1.0
  Ge4+  Ge66  1  0.24846532  0.31523413  0.92531400  1.0
  Ge4+  Ge67  1  0.74650000  0.31175000  0.92425000  1.0
  Ge4+  Ge68  1  0.24659076  0.51046168  0.42103915  1.0
  Ge4+  Ge69  1  0.74650000  0.50700000  0.42425000  1.0
  Ge4+  Ge70  1  0.49650000  0.50700000  0.42425000  1.0
  Ge4+  Ge71  1  0.99650000  0.50700000  0.42425000  1.0
  Ge4+  Ge72  1  0.49650000  0.17425000  0.06175000  1.0
  Ge4+  Ge73  1  0.99650000  0.17425000  0.06175000  1.0
  Ge4+  Ge74  1  0.09463138  0.17480903  0.25657873  1.0
  Ge4+  Ge75  1  0.59412500  0.17425000  0.25700000  1.0
  Ge4+  Ge76  1  0.34427345  0.17610246  0.25732495  1.0
  Ge4+  Ge77  1  0.84412500  0.17425000  0.25700000  1.0
  Ge4+  Ge78  1  0.34412500  0.50700000  0.25700000  1.0
  Ge4+  Ge79  1  0.84412500  0.50700000  0.25700000  1.0
  P5+  P80  1  0.12500000  0.75000000  0.50000000  1.0
  P5+  P81  1  0.62500000  0.75000000  0.50000000  1.0
  P5+  P82  1  0.12500000  0.75000000  0.00000000  1.0
  P5+  P83  1  0.62568260  0.74660845  0.99656966  1.0
  P5+  P84  1  0.37500000  0.75000000  0.50000000  1.0
  P5+  P85  1  0.87500000  0.75000000  0.50000000  1.0
  P5+  P86  1  0.37453573  0.75622604  0.99931988  1.0
  P5+  P87  1  0.87500000  0.75000000  0.00000000  1.0
  S2-  S88  1  0.21836887  0.81313082  0.56321846  1.0
  S2-  S89  1  0.71746750  0.81164500  0.56164500  1.0
  S2-  S90  1  0.21746750  0.31164500  0.56164500  1.0
  S2-  S91  1  0.71666814  0.30899199  0.55905421  1.0
  S2-  S92  1  0.21746750  0.81164500  0.06164500  1.0
  S2-  S93  1  0.71746750  0.81164500  0.06164500  1.0
  S2-  S94  1  0.21746750  0.31164500  0.06164500  1.0
  S2-  S95  1  0.71746750  0.31164500  0.06164500  1.0
  S2-  S96  1  0.47051108  0.80642415  0.55818934  1.0
  S2-  S97  1  0.96746750  0.81164500  0.56164500  1.0
  S2-  S98  1  0.46689284  0.31311797  0.56486552  1.0
  S2-  S99  1  0.96746750  0.31164500  0.56164500  1.0
  S2-  S100  1  0.46746750  0.81164500  0.06164500  1.0
  S2-  S101  1  0.96746750  0.81164500  0.06164500  1.0
  S2-  S102  1  0.46746750  0.31164500  0.06164500  1.0
  S2-  S103  1  0.96688996  0.31380093  0.06213285  1.0
  S2-  S104  1  0.09417750  0.81164500  0.31506500  1.0
  S2-  S105  1  0.59417750  0.81164500  0.31506500  1.0
  S2-  S106  1  0.09417750  0.31164500  0.31506500  1.0
  S2-  S107  1  0.59417750  0.31164500  0.31506500  1.0
  S2-  S108  1  0.09417750  0.81164500  0.81506500  1.0
  S2-  S109  1  0.59417750  0.81164500  0.81506500  1.0
  S2-  S110  1  0.09290957  0.30910565  0.81546918  1.0
  S2-  S111  1  0.59417750  0.31164500  0.81506500  1.0
  S2-  S112  1  0.34417750  0.81164500  0.31506500  1.0
  S2-  S113  1  0.84417750  0.81164500  0.31506500  1.0
  S2-  S114  1  0.34417750  0.31164500  0.31506500  1.0
  S2-  S115  1  0.84632707  0.31049317  0.31476632  1.0
  S2-  S116  1  0.34417750  0.81164500  0.81506500  1.0
  S2-  S117  1  0.84417750  0.81164500  0.81506500  1.0
  S2-  S118  1  0.34417750  0.31164500  0.81506500  1.0
  S2-  S119  1  0.84417750  0.31164500  0.81506500  1.0
  S2-  S120  1  0.09417750  0.56506500  0.56164500  1.0
  S2-  S121  1  0.59417750  0.56506500  0.56164500  1.0
  S2-  S122  1  0.09417750  0.06506500  0.56164500  1.0
  S2-  S123  1  0.59417750  0.06506500  0.56164500  1.0
  S2-  S124  1  0.09417750  0.56506500  0.06164500  1.0
  S2-  S125  1  0.59837689  0.56650672  0.05777090  1.0
  S2-  S126  1  0.09417750  0.06506500  0.06164500  1.0
  S2-  S127  1  0.59417750  0.06506500  0.06164500  1.0
  S2-  S128  1  0.34417750  0.56506500  0.56164500  1.0
  S2-  S129  1  0.83954847  0.56508905  0.56703621  1.0
  S2-  S130  1  0.34282221  0.06862646  0.56333943  1.0
  S2-  S131  1  0.84879940  0.06368370  0.55714586  1.0
  S2-  S132  1  0.34417750  0.56506500  0.06164500  1.0
  S2-  S133  1  0.84417750  0.56506500  0.06164500  1.0
  S2-  S134  1  0.34501592  0.06184693  0.06064418  1.0
  S2-  S135  1  0.84417750  0.06506500  0.06164500  1.0
  S2-  S136  1  0.09285122  0.80962725  0.56104900  1.0
  S2-  S137  1  0.59417750  0.81164500  0.56164500  1.0
  S2-  S138  1  0.09597696  0.31459431  0.56129401  1.0
  S2-  S139  1  0.59417750  0.31164500  0.56164500  1.0
  S2-  S140  1  0.09417750  0.81164500  0.06164500  1.0
  S2-  S141  1  0.59417750  0.81164500  0.06164500  1.0
  S2-  S142  1  0.09615596  0.31387904  0.05874049  1.0
  S2-  S143  1  0.59417750  0.31164500  0.06164500  1.0
  S2-  S144  1  0.34417750  0.81164500  0.56164500  1.0
  S2-  S145  1  0.84417750  0.81164500  0.56164500  1.0
  S2-  S146  1  0.34417750  0.31164500  0.56164500  1.0
  S2-  S147  1  0.84417750  0.31164500  0.56164500  1.0
  S2-  S148  1  0.34399102  0.81201276  0.06578480  1.0
  S2-  S149  1  0.84417750  0.81164500  0.06164500  1.0
  S2-  S150  1  0.34416845  0.31086522  0.06037084  1.0
  S2-  S151  1  0.84417750  0.31164500  0.06164500  1.0
  S2-  S152  1  0.18750000  0.62500000  0.37500000  1.0
  S2-  S153  1  0.68750000  0.62500000  0.37500000  1.0
  S2-  S154  1  0.18750000  0.12500000  0.37500000  1.0
  S2-  S155  1  0.68750000  0.12500000  0.37500000  1.0
  S2-  S156  1  0.18742518  0.62695812  0.88075290  1.0
  S2-  S157  1  0.68750000  0.62500000  0.87500000  1.0
  S2-  S158  1  0.18378874  0.12492341  0.87507119  1.0
  S2-  S159  1  0.68750000  0.12500000  0.87500000  1.0
  S2-  S160  1  0.43750000  0.62500000  0.37500000  1.0
  S2-  S161  1  0.93750000  0.62500000  0.37500000  1.0
  S2-  S162  1  0.43750000  0.12500000  0.37500000  1.0
  S2-  S163  1  0.93750000  0.12500000  0.37500000  1.0
  S2-  S164  1  0.43750000  0.62500000  0.87500000  1.0
  S2-  S165  1  0.93682889  0.62382387  0.87665828  1.0
  S2-  S166  1  0.43750000  0.12500000  0.87500000  1.0
  S2-  S167  1  0.93750000  0.12500000  0.87500000  1.0
  S2-  S168  1  0.99830811  0.00159889  0.75327526  1.0
  S2-  S169  1  0.50000000  0.00000000  0.75000000  1.0
  S2-  S170  1  0.00000000  0.50000000  0.75000000  1.0
  S2-  S171  1  0.50128086  0.50312057  0.75069667  1.0
  S2-  S172  1  0.00626422  0.99717558  0.24826933  1.0
  S2-  S173  1  0.50000000  0.00000000  0.25000000  1.0
  S2-  S174  1  0.00000000  0.50000000  0.25000000  1.0
  S2-  S175  1  0.49966795  0.50093004  0.24896537  1.0
  S2-  S176  1  0.25000000  0.00000000  0.75000000  1.0
  S2-  S177  1  0.75000000  0.00000000  0.75000000  1.0
  S2-  S178  1  0.25000000  0.50000000  0.75000000  1.0
  S2-  S179  1  0.75000000  0.50000000  0.75000000  1.0
  S2-  S180  1  0.25014631  0.99906128  0.24965716  1.0
  S2-  S181  1  0.75000000  0.00000000  0.25000000  1.0
  S2-  S182  1  0.25000000  0.50000000  0.25000000  1.0
  S2-  S183  1  0.75000000  0.50000000  0.25000000  1.0
