# generated using pymatgen
data_Li7Ge3PS12
_symmetry_space_group_name_H-M   'P 1'
_cell_length_a   13.73053642
_cell_length_b   27.46107284
_cell_length_c   13.73053642
_cell_angle_alpha   120.00000000
_cell_angle_beta   120.00000000
_cell_angle_gamma   60.00000000
_symmetry_Int_Tables_number   1
_chemical_formula_structural   Li7Ge3PS12
_chemical_formula_sum   'Li56 Ge24 P8 S96'
_cell_volume   3660.81271456
_cell_formula_units_Z   8
loop_
 _symmetry_equiv_pos_site_id
 _symmetry_equiv_pos_as_xyz
  1  'x, y, z'
loop_
 _atom_type_symbol
 _atom_type_oxidation_number
  Li+  1.0
  Ge4+  4.0
  P5+  5.0
  S2-  -2.0
loop_
 _atom_site_type_symbol
 _atom_site_label
 _atom_site_symmetry_multiplicity
 _atom_site_fract_x
 _atom_site_fract_y
 _atom_site_fract_z
 _atom_site_occupancy
  Li+  Li0  1  0.81175000  0.50379167  0.49300000  1.0
  Li+  Li1  1  0.81175000  0.00379167  0.49300000  1.0
  Li+  Li2  1  0.81175000  0.50379167  0.99300000  1.0
  Li+  Li3  1  0.81175000  0.00379167  0.99300000  1.0
  Li+  Li4  1  0.31175000  0.50379167  0.49300000  1.0
  Li+  Li5  1  0.31175000  0.00379167  0.49300000  1.0
  Li+  Li6  1  0.31175000  0.25379167  0.49300000  1.0
  Li+  Li7  1  0.31175000  0.75379167  0.49300000  1.0
  Li+  Li8  1  0.00700000  0.50379167  0.99300000  1.0
  Li+  Li9  1  0.00700000  0.00379167  0.99300000  1.0
  Li+  Li10  1  0.00700000  0.25379167  0.99300000  1.0
  Li+  Li11  1  0.00700000  0.75379167  0.99300000  1.0
  Li+  Li12  1  0.50700000  0.50379167  0.68825000  1.0
  Li+  Li13  1  0.50700000  0.00379167  0.68825000  1.0
  Li+  Li14  1  0.50700000  0.25379167  0.18825000  1.0
  Li+  Li15  1  0.50700000  0.75379167  0.18825000  1.0
  Li+  Li16  1  0.00700000  0.25379167  0.68825000  1.0
  Li+  Li17  1  0.00700000  0.75379167  0.68825000  1.0
  Li+  Li18  1  0.67425000  0.57254167  0.49300000  1.0
  Li+  Li19  1  0.67425000  0.07254167  0.49300000  1.0
  Li+  Li20  1  0.17425000  0.57254167  0.99300000  1.0
  Li+  Li21  1  0.17425000  0.07254167  0.99300000  1.0
  Li+  Li22  1  0.67425000  0.32254167  0.99300000  1.0
  Li+  Li23  1  0.67425000  0.82254167  0.99300000  1.0
  Li+  Li24  1  0.67425000  0.42016667  0.18825000  1.0
  Li+  Li25  1  0.67425000  0.92016667  0.18825000  1.0
  Li+  Li26  1  0.67425000  0.17016667  0.99300000  1.0
  Li+  Li27  1  0.67425000  0.67016667  0.99300000  1.0
  Li+  Li28  1  0.50700000  0.17016667  0.82575000  1.0
  Li+  Li29  1  0.50700000  0.67016667  0.82575000  1.0
  Li+  Li30  1  0.81175000  0.42016667  0.32575000  1.0
  Li+  Li31  1  0.81175000  0.92016667  0.32575000  1.0
  Li+  Li32  1  0.31175000  0.17016667  0.32575000  1.0
  Li+  Li33  1  0.31175000  0.67016667  0.32575000  1.0
  Li+  Li34  1  0.50700000  0.57254167  0.32575000  1.0
  Li+  Li35  1  0.50700000  0.07254167  0.32575000  1.0
  Li+  Li36  1  0.00700000  0.57254167  0.32575000  1.0
  Li+  Li37  1  0.00700000  0.07254167  0.32575000  1.0
  Li+  Li38  1  0.00700000  0.57254167  0.82575000  1.0
  Li+  Li39  1  0.00700000  0.07254167  0.82575000  1.0
  Li+  Li40  1  0.00700000  0.32254167  0.32575000  1.0
  Li+  Li41  1  0.00700000  0.82254167  0.32575000  1.0
  Li+  Li42  1  0.00700000  0.32254167  0.82575000  1.0
  Li+  Li43  1  0.00700000  0.82254167  0.82575000  1.0
  Li+  Li44  1  0.50700000  0.42016667  0.68825000  1.0
  Li+  Li45  1  0.50700000  0.92016667  0.68825000  1.0
  Li+  Li46  1  0.50700000  0.17016667  0.18825000  1.0
  Li+  Li47  1  0.50700000  0.67016667  0.18825000  1.0
  Li+  Li48  1  0.50700000  0.57254167  0.99300000  1.0
  Li+  Li49  1  0.50700000  0.07254167  0.99300000  1.0
  Li+  Li50  1  0.00700000  0.32254167  0.49300000  1.0
  Li+  Li51  1  0.00700000  0.82254167  0.49300000  1.0
  Li+  Li52  1  0.81175000  0.42016667  0.99300000  1.0
  Li+  Li53  1  0.81175000  0.92016667  0.99300000  1.0
  Li+  Li54  1  0.31175000  0.42016667  0.49300000  1.0
  Li+  Li55  1  0.31175000  0.92016667  0.49300000  1.0
  Ge4+  Ge56  1  0.75000000  0.54166667  0.75000000  1.0
  Ge4+  Ge57  1  0.75000000  0.04166667  0.75000000  1.0
  Ge4+  Ge58  1  0.25000000  0.54166667  0.75000000  1.0
  Ge4+  Ge59  1  0.25000000  0.04166667  0.75000000  1.0
  Ge4+  Ge60  1  0.75000000  0.29166667  0.75000000  1.0
  Ge4+  Ge61  1  0.75000000  0.79166667  0.75000000  1.0
  Ge4+  Ge62  1  0.25000000  0.29166667  0.75000000  1.0
  Ge4+  Ge63  1  0.25000000  0.79166667  0.75000000  1.0
  Ge4+  Ge64  1  0.17425000  0.42016667  0.18825000  1.0
  Ge4+  Ge65  1  0.17425000  0.92016667  0.18825000  1.0
  Ge4+  Ge66  1  0.17425000  0.42016667  0.68825000  1.0
  Ge4+  Ge67  1  0.17425000  0.92016667  0.68825000  1.0
  Ge4+  Ge68  1  0.67425000  0.42016667  0.49300000  1.0
  Ge4+  Ge69  1  0.67425000  0.92016667  0.49300000  1.0
  Ge4+  Ge70  1  0.67425000  0.17016667  0.49300000  1.0
  Ge4+  Ge71  1  0.67425000  0.67016667  0.49300000  1.0
  Ge4+  Ge72  1  0.31175000  0.17016667  0.82575000  1.0
  Ge4+  Ge73  1  0.31175000  0.67016667  0.82575000  1.0
  Ge4+  Ge74  1  0.50700000  0.57254167  0.82575000  1.0
  Ge4+  Ge75  1  0.50700000  0.07254167  0.82575000  1.0
  Ge4+  Ge76  1  0.50700000  0.32254167  0.82575000  1.0
  Ge4+  Ge77  1  0.50700000  0.82254167  0.82575000  1.0
  Ge4+  Ge78  1  0.50700000  0.32254167  0.49300000  1.0
  Ge4+  Ge79  1  0.50700000  0.82254167  0.49300000  1.0
  P5+  P80  1  0.75000000  0.54166667  0.25000000  1.0
  P5+  P81  1  0.75000000  0.04166667  0.25000000  1.0
  P5+  P82  1  0.25000000  0.54166667  0.25000000  1.0
  P5+  P83  1  0.25000000  0.04166667  0.25000000  1.0
  P5+  P84  1  0.75000000  0.29166667  0.25000000  1.0
  P5+  P85  1  0.75000000  0.79166667  0.25000000  1.0
  P5+  P86  1  0.25000000  0.29166667  0.25000000  1.0
  P5+  P87  1  0.25000000  0.79166667  0.25000000  1.0
  S2-  S88  1  0.81164500  0.44919917  0.18835500  1.0
  S2-  S89  1  0.81164500  0.94919917  0.18835500  1.0
  S2-  S90  1  0.81164500  0.44919917  0.68835500  1.0
  S2-  S91  1  0.81164500  0.94919917  0.68835500  1.0
  S2-  S92  1  0.31164500  0.44919917  0.18835500  1.0
  S2-  S93  1  0.31164500  0.94919917  0.18835500  1.0
  S2-  S94  1  0.31164500  0.44919917  0.68835500  1.0
  S2-  S95  1  0.31164500  0.94919917  0.68835500  1.0
  S2-  S96  1  0.81164500  0.19919917  0.18835500  1.0
  S2-  S97  1  0.81164500  0.69919917  0.18835500  1.0
  S2-  S98  1  0.81164500  0.19919917  0.68835500  1.0
  S2-  S99  1  0.81164500  0.69919917  0.68835500  1.0
  S2-  S100  1  0.31164500  0.19919917  0.18835500  1.0
  S2-  S101  1  0.31164500  0.69919917  0.18835500  1.0
  S2-  S102  1  0.31164500  0.19919917  0.68835500  1.0
  S2-  S103  1  0.31164500  0.69919917  0.68835500  1.0
  S2-  S104  1  0.56506500  0.57248917  0.18835500  1.0
  S2-  S105  1  0.56506500  0.07248917  0.18835500  1.0
  S2-  S106  1  0.56506500  0.57248917  0.68835500  1.0
  S2-  S107  1  0.56506500  0.07248917  0.68835500  1.0
  S2-  S108  1  0.06506500  0.57248917  0.18835500  1.0
  S2-  S109  1  0.06506500  0.07248917  0.18835500  1.0
  S2-  S110  1  0.06506500  0.57248917  0.68835500  1.0
  S2-  S111  1  0.06506500  0.07248917  0.68835500  1.0
  S2-  S112  1  0.56506500  0.32248917  0.18835500  1.0
  S2-  S113  1  0.56506500  0.82248917  0.18835500  1.0
  S2-  S114  1  0.56506500  0.32248917  0.68835500  1.0
  S2-  S115  1  0.56506500  0.82248917  0.68835500  1.0
  S2-  S116  1  0.06506500  0.32248917  0.18835500  1.0
  S2-  S117  1  0.06506500  0.82248917  0.18835500  1.0
  S2-  S118  1  0.06506500  0.32248917  0.68835500  1.0
  S2-  S119  1  0.06506500  0.82248917  0.68835500  1.0
  S2-  S120  1  0.81164500  0.57248917  0.43493500  1.0
  S2-  S121  1  0.81164500  0.07248917  0.43493500  1.0
  S2-  S122  1  0.81164500  0.57248917  0.93493500  1.0
  S2-  S123  1  0.81164500  0.07248917  0.93493500  1.0
  S2-  S124  1  0.31164500  0.57248917  0.43493500  1.0
  S2-  S125  1  0.31164500  0.07248917  0.43493500  1.0
  S2-  S126  1  0.31164500  0.57248917  0.93493500  1.0
  S2-  S127  1  0.31164500  0.07248917  0.93493500  1.0
  S2-  S128  1  0.81164500  0.32248917  0.43493500  1.0
  S2-  S129  1  0.81164500  0.82248917  0.43493500  1.0
  S2-  S130  1  0.81164500  0.32248917  0.93493500  1.0
  S2-  S131  1  0.81164500  0.82248917  0.93493500  1.0
  S2-  S132  1  0.31164500  0.32248917  0.43493500  1.0
  S2-  S133  1  0.31164500  0.82248917  0.43493500  1.0
  S2-  S134  1  0.31164500  0.32248917  0.93493500  1.0
  S2-  S135  1  0.31164500  0.82248917  0.93493500  1.0
  S2-  S136  1  0.81164500  0.57248917  0.18835500  1.0
  S2-  S137  1  0.81164500  0.07248917  0.18835500  1.0
  S2-  S138  1  0.81164500  0.57248917  0.68835500  1.0
  S2-  S139  1  0.81164500  0.07248917  0.68835500  1.0
  S2-  S140  1  0.31164500  0.57248917  0.18835500  1.0
  S2-  S141  1  0.31164500  0.07248917  0.18835500  1.0
  S2-  S142  1  0.31164500  0.57248917  0.68835500  1.0
  S2-  S143  1  0.31164500  0.07248917  0.68835500  1.0
  S2-  S144  1  0.81164500  0.32248917  0.18835500  1.0
  S2-  S145  1  0.81164500  0.82248917  0.18835500  1.0
  S2-  S146  1  0.81164500  0.32248917  0.68835500  1.0
  S2-  S147  1  0.81164500  0.82248917  0.68835500  1.0
  S2-  S148  1  0.31164500  0.32248917  0.18835500  1.0
  S2-  S149  1  0.31164500  0.82248917  0.18835500  1.0
  S2-  S150  1  0.31164500  0.32248917  0.68835500  1.0
  S2-  S151  1  0.31164500  0.82248917  0.68835500  1.0
  S2-  S152  1  0.62500000  0.47916667  0.37500000  1.0
  S2-  S153  1  0.62500000  0.97916667  0.37500000  1.0
  S2-  S154  1  0.62500000  0.47916667  0.87500000  1.0
  S2-  S155  1  0.62500000  0.97916667  0.87500000  1.0
  S2-  S156  1  0.12500000  0.47916667  0.37500000  1.0
  S2-  S157  1  0.12500000  0.97916667  0.37500000  1.0
  S2-  S158  1  0.12500000  0.47916667  0.87500000  1.0
  S2-  S159  1  0.12500000  0.97916667  0.87500000  1.0
  S2-  S160  1  0.62500000  0.22916667  0.37500000  1.0
  S2-  S161  1  0.62500000  0.72916667  0.37500000  1.0
  S2-  S162  1  0.62500000  0.22916667  0.87500000  1.0
  S2-  S163  1  0.62500000  0.72916667  0.87500000  1.0
  S2-  S164  1  0.12500000  0.22916667  0.37500000  1.0
  S2-  S165  1  0.12500000  0.72916667  0.37500000  1.0
  S2-  S166  1  0.12500000  0.22916667  0.87500000  1.0
  S2-  S167  1  0.12500000  0.72916667  0.87500000  1.0
  S2-  S168  1  0.00000000  0.66666667  0.00000000  1.0
  S2-  S169  1  0.00000000  0.16666667  0.00000000  1.0
  S2-  S170  1  0.00000000  0.66666667  0.50000000  1.0
  S2-  S171  1  0.00000000  0.16666667  0.50000000  1.0
  S2-  S172  1  0.50000000  0.66666667  0.00000000  1.0
  S2-  S173  1  0.50000000  0.16666667  0.00000000  1.0
  S2-  S174  1  0.50000000  0.66666667  0.50000000  1.0
  S2-  S175  1  0.50000000  0.16666667  0.50000000  1.0
  S2-  S176  1  0.00000000  0.41666667  0.00000000  1.0
  S2-  S177  1  0.00000000  0.91666667  0.00000000  1.0
  S2-  S178  1  0.00000000  0.41666667  0.50000000  1.0
  S2-  S179  1  0.00000000  0.91666667  0.50000000  1.0
  S2-  S180  1  0.50000000  0.41666667  0.00000000  1.0
  S2-  S181  1  0.50000000  0.91666667  0.00000000  1.0
  S2-  S182  1  0.50000000  0.41666667  0.50000000  1.0
  S2-  S183  1  0.50000000  0.91666667  0.50000000  1.0
