# generated using pymatgen
data_Li7Ge3PS12
_symmetry_space_group_name_H-M   'P 1'
_cell_length_a   27.72401640
_cell_length_b   13.86200820
_cell_length_c   13.86200820
_cell_angle_alpha   60.00000000
_cell_angle_beta   60.00000000
_cell_angle_gamma   60.00000000
_symmetry_Int_Tables_number   1
_chemical_formula_structural   Li7Ge3PS12
_chemical_formula_sum   'Li56 Ge24 P8 S96'
_cell_volume   3766.98119409
_cell_formula_units_Z   8
loop_
 _symmetry_equiv_pos_site_id
 _symmetry_equiv_pos_as_xyz
  1  'x, y, z'
loop_
 _atom_type_symbol
 _atom_type_oxidation_number
  Li+  1.0
  Ge4+  4.0
  P5+  5.0
  S2-  -2.0
loop_
 _atom_site_type_symbol
 _atom_site_label
 _atom_site_symmetry_multiplicity
 _atom_site_fract_x
 _atom_site_fract_y
 _atom_site_fract_z
 _atom_site_occupancy
  Li+  Li0  1  0.16287500  0.18825000  0.49300000  1.0
  Li+  Li0  1  0.66287500  0.18825000  0.49300000  1.0
  Li+  Li1  1  0.16287500  0.18825000  0.99300000  1.0
  Li+  Li1  1  0.66287500  0.18825000  0.99300000  1.0
  Li+  Li2  1  0.16287500  0.68825000  0.49300000  1.0
  Li+  Li2  1  0.66287500  0.68825000  0.49300000  1.0
  Li+  Li3  1  0.41287500  0.68825000  0.49300000  1.0
  Li+  Li3  1  0.91287500  0.68825000  0.49300000  1.0
  Li+  Li4  1  0.16287500  0.99300000  0.99300000  1.0
  Li+  Li4  1  0.66287500  0.99300000  0.99300000  1.0
  Li+  Li5  1  0.41287500  0.99300000  0.99300000  1.0
  Li+  Li5  1  0.91287500  0.99300000  0.99300000  1.0
  Li+  Li6  1  0.16287500  0.49300000  0.68825000  1.0
  Li+  Li6  1  0.66287500  0.49300000  0.68825000  1.0
  Li+  Li7  1  0.41287500  0.49300000  0.18825000  1.0
  Li+  Li7  1  0.91287500  0.49300000  0.18825000  1.0
  Li+  Li8  1  0.41287500  0.99300000  0.68825000  1.0
  Li+  Li8  1  0.91287500  0.99300000  0.68825000  1.0
  Li+  Li9  1  0.09412500  0.32575000  0.49300000  1.0
  Li+  Li9  1  0.59412500  0.32575000  0.49300000  1.0
  Li+  Li10  1  0.09412500  0.82575000  0.99300000  1.0
  Li+  Li10  1  0.59412500  0.82575000  0.99300000  1.0
  Li+  Li11  1  0.34412500  0.32575000  0.99300000  1.0
  Li+  Li11  1  0.84412500  0.32575000  0.99300000  1.0
  Li+  Li12  1  0.24650000  0.32575000  0.18825000  1.0
  Li+  Li12  1  0.74650000  0.32575000  0.18825000  1.0
  Li+  Li13  1  0.49650000  0.32575000  0.99300000  1.0
  Li+  Li13  1  0.99650000  0.32575000  0.99300000  1.0
  Li+  Li14  1  0.49650000  0.49300000  0.82575000  1.0
  Li+  Li14  1  0.99650000  0.49300000  0.82575000  1.0
  Li+  Li15  1  0.24650000  0.18825000  0.32575000  1.0
  Li+  Li15  1  0.74650000  0.18825000  0.32575000  1.0
  Li+  Li16  1  0.49650000  0.68825000  0.32575000  1.0
  Li+  Li16  1  0.99650000  0.68825000  0.32575000  1.0
  Li+  Li17  1  0.09412500  0.49300000  0.32575000  1.0
  Li+  Li17  1  0.59412500  0.49300000  0.32575000  1.0
  Li+  Li18  1  0.09412500  0.99300000  0.32575000  1.0
  Li+  Li18  1  0.59412500  0.99300000  0.32575000  1.0
  Li+  Li19  1  0.09412500  0.99300000  0.82575000  1.0
  Li+  Li19  1  0.59412500  0.99300000  0.82575000  1.0
  Li+  Li20  1  0.34412500  0.99300000  0.32575000  1.0
  Li+  Li20  1  0.84412500  0.99300000  0.32575000  1.0
  Li+  Li21  1  0.34412500  0.99300000  0.82575000  1.0
  Li+  Li21  1  0.84412500  0.99300000  0.82575000  1.0
  Li+  Li22  1  0.24650000  0.49300000  0.68825000  1.0
  Li+  Li22  1  0.74650000  0.49300000  0.68825000  1.0
  Li+  Li23  1  0.49650000  0.49300000  0.18825000  1.0
  Li+  Li23  1  0.99650000  0.49300000  0.18825000  1.0
  Li+  Li24  1  0.09412500  0.49300000  0.99300000  1.0
  Li+  Li24  1  0.59412500  0.49300000  0.99300000  1.0
  Li+  Li25  1  0.34412500  0.99300000  0.49300000  1.0
  Li+  Li25  1  0.84412500  0.99300000  0.49300000  1.0
  Li+  Li26  1  0.24650000  0.18825000  0.99300000  1.0
  Li+  Li26  1  0.74650000  0.18825000  0.99300000  1.0
  Li+  Li27  1  0.24650000  0.68825000  0.49300000  1.0
  Li+  Li27  1  0.74650000  0.68825000  0.49300000  1.0
  Ge4+  Ge28  1  0.12500000  0.25000000  0.75000000  1.0
  Ge4+  Ge28  1  0.62500000  0.25000000  0.75000000  1.0
  Ge4+  Ge29  1  0.12500000  0.75000000  0.75000000  1.0
  Ge4+  Ge29  1  0.62500000  0.75000000  0.75000000  1.0
  Ge4+  Ge30  1  0.37500000  0.25000000  0.75000000  1.0
  Ge4+  Ge30  1  0.87500000  0.25000000  0.75000000  1.0
  Ge4+  Ge31  1  0.37500000  0.75000000  0.75000000  1.0
  Ge4+  Ge31  1  0.87500000  0.75000000  0.75000000  1.0
  Ge4+  Ge32  1  0.24650000  0.82575000  0.18825000  1.0
  Ge4+  Ge32  1  0.74650000  0.82575000  0.18825000  1.0
  Ge4+  Ge33  1  0.24650000  0.82575000  0.68825000  1.0
  Ge4+  Ge33  1  0.74650000  0.82575000  0.68825000  1.0
  Ge4+  Ge34  1  0.24650000  0.32575000  0.49300000  1.0
  Ge4+  Ge34  1  0.74650000  0.32575000  0.49300000  1.0
  Ge4+  Ge35  1  0.49650000  0.32575000  0.49300000  1.0
  Ge4+  Ge35  1  0.99650000  0.32575000  0.49300000  1.0
  Ge4+  Ge36  1  0.49650000  0.68825000  0.82575000  1.0
  Ge4+  Ge36  1  0.99650000  0.68825000  0.82575000  1.0
  Ge4+  Ge37  1  0.09412500  0.49300000  0.82575000  1.0
  Ge4+  Ge37  1  0.59412500  0.49300000  0.82575000  1.0
  Ge4+  Ge38  1  0.34412500  0.49300000  0.82575000  1.0
  Ge4+  Ge38  1  0.84412500  0.49300000  0.82575000  1.0
  Ge4+  Ge39  1  0.34412500  0.49300000  0.49300000  1.0
  Ge4+  Ge39  1  0.84412500  0.49300000  0.49300000  1.0
  P5+  P40  1  0.12500000  0.25000000  0.25000000  1.0
  P5+  P40  1  0.62500000  0.25000000  0.25000000  1.0
  P5+  P41  1  0.12500000  0.75000000  0.25000000  1.0
  P5+  P41  1  0.62500000  0.75000000  0.25000000  1.0
  P5+  P42  1  0.37500000  0.25000000  0.25000000  1.0
  P5+  P42  1  0.87500000  0.25000000  0.25000000  1.0
  P5+  P43  1  0.37500000  0.75000000  0.25000000  1.0
  P5+  P43  1  0.87500000  0.75000000  0.25000000  1.0
  S2-  S1  1  0.21746750  0.18835500  0.18835500  1.0
  S2-  S1  1  0.71746750  0.18835500  0.18835500  1.0
  S2-  S1  1  0.21746750  0.18835500  0.68835500  1.0
  S2-  S1  1  0.71746750  0.18835500  0.68835500  1.0
  S2-  S1  1  0.21746750  0.68835500  0.18835500  1.0
  S2-  S1  1  0.71746750  0.68835500  0.18835500  1.0
  S2-  S1  1  0.21746750  0.68835500  0.68835500  1.0
  S2-  S1  1  0.71746750  0.68835500  0.68835500  1.0
  S2-  S1  1  0.46746750  0.18835500  0.18835500  1.0
  S2-  S1  1  0.96746750  0.18835500  0.18835500  1.0
  S2-  S1  1  0.46746750  0.18835500  0.68835500  1.0
  S2-  S1  1  0.96746750  0.18835500  0.68835500  1.0
  S2-  S1  1  0.46746750  0.68835500  0.18835500  1.0
  S2-  S1  1  0.96746750  0.68835500  0.18835500  1.0
  S2-  S1  1  0.46746750  0.68835500  0.68835500  1.0
  S2-  S1  1  0.96746750  0.68835500  0.68835500  1.0
  S2-  S1  1  0.09417750  0.43493500  0.18835500  1.0
  S2-  S1  1  0.59417750  0.43493500  0.18835500  1.0
  S2-  S1  1  0.09417750  0.43493500  0.68835500  1.0
  S2-  S1  1  0.59417750  0.43493500  0.68835500  1.0
  S2-  S1  1  0.09417750  0.93493500  0.18835500  1.0
  S2-  S1  1  0.59417750  0.93493500  0.18835500  1.0
  S2-  S1  1  0.09417750  0.93493500  0.68835500  1.0
  S2-  S1  1  0.59417750  0.93493500  0.68835500  1.0
  S2-  S1  1  0.34417750  0.43493500  0.18835500  1.0
  S2-  S1  1  0.84417750  0.43493500  0.18835500  1.0
  S2-  S1  1  0.34417750  0.43493500  0.68835500  1.0
  S2-  S1  1  0.84417750  0.43493500  0.68835500  1.0
  S2-  S1  1  0.34417750  0.93493500  0.18835500  1.0
  S2-  S1  1  0.84417750  0.93493500  0.18835500  1.0
  S2-  S1  1  0.34417750  0.93493500  0.68835500  1.0
  S2-  S1  1  0.84417750  0.93493500  0.68835500  1.0
  S2-  S1  1  0.09417750  0.18835500  0.43493500  1.0
  S2-  S1  1  0.59417750  0.18835500  0.43493500  1.0
  S2-  S1  1  0.09417750  0.18835500  0.93493500  1.0
  S2-  S1  1  0.59417750  0.18835500  0.93493500  1.0
  S2-  S1  1  0.09417750  0.68835500  0.43493500  1.0
  S2-  S1  1  0.59417750  0.68835500  0.43493500  1.0
  S2-  S1  1  0.09417750  0.68835500  0.93493500  1.0
  S2-  S1  1  0.59417750  0.68835500  0.93493500  1.0
  S2-  S1  1  0.34417750  0.18835500  0.43493500  1.0
  S2-  S1  1  0.84417750  0.18835500  0.43493500  1.0
  S2-  S1  1  0.34417750  0.18835500  0.93493500  1.0
  S2-  S1  1  0.84417750  0.18835500  0.93493500  1.0
  S2-  S1  1  0.34417750  0.68835500  0.43493500  1.0
  S2-  S1  1  0.84417750  0.68835500  0.43493500  1.0
  S2-  S1  1  0.34417750  0.68835500  0.93493500  1.0
  S2-  S1  1  0.84417750  0.68835500  0.93493500  1.0
  S2-  S1  1  0.09417750  0.18835500  0.18835500  1.0
  S2-  S1  1  0.59417750  0.18835500  0.18835500  1.0
  S2-  S1  1  0.09417750  0.18835500  0.68835500  1.0
  S2-  S1  1  0.59417750  0.18835500  0.68835500  1.0
  S2-  S1  1  0.09417750  0.68835500  0.18835500  1.0
  S2-  S1  1  0.59417750  0.68835500  0.18835500  1.0
  S2-  S1  1  0.09417750  0.68835500  0.68835500  1.0
  S2-  S1  1  0.59417750  0.68835500  0.68835500  1.0
  S2-  S1  1  0.34417750  0.18835500  0.18835500  1.0
  S2-  S1  1  0.84417750  0.18835500  0.18835500  1.0
  S2-  S1  1  0.34417750  0.18835500  0.68835500  1.0
  S2-  S1  1  0.84417750  0.18835500  0.68835500  1.0
  S2-  S1  1  0.34417750  0.68835500  0.18835500  1.0
  S2-  S1  1  0.84417750  0.68835500  0.18835500  1.0
  S2-  S1  1  0.34417750  0.68835500  0.68835500  1.0
  S2-  S1  1  0.84417750  0.68835500  0.68835500  1.0
  S2-  S2  1  0.18750000  0.37500000  0.37500000  1.0
  S2-  S2  1  0.68750000  0.37500000  0.37500000  1.0
  S2-  S2  1  0.18750000  0.37500000  0.87500000  1.0
  S2-  S2  1  0.68750000  0.37500000  0.87500000  1.0
  S2-  S2  1  0.18750000  0.87500000  0.37500000  1.0
  S2-  S2  1  0.68750000  0.87500000  0.37500000  1.0
  S2-  S2  1  0.18750000  0.87500000  0.87500000  1.0
  S2-  S2  1  0.68750000  0.87500000  0.87500000  1.0
  S2-  S2  1  0.43750000  0.37500000  0.37500000  1.0
  S2-  S2  1  0.93750000  0.37500000  0.37500000  1.0
  S2-  S2  1  0.43750000  0.37500000  0.87500000  1.0
  S2-  S2  1  0.93750000  0.37500000  0.87500000  1.0
  S2-  S2  1  0.43750000  0.87500000  0.37500000  1.0
  S2-  S2  1  0.93750000  0.87500000  0.37500000  1.0
  S2-  S2  1  0.43750000  0.87500000  0.87500000  1.0
  S2-  S2  1  0.93750000  0.87500000  0.87500000  1.0
  S2-  S3  1  0.00000000  0.00000000  0.00000000  1.0
  S2-  S3  1  0.50000000  0.00000000  0.00000000  1.0
  S2-  S3  1  0.00000000  0.00000000  0.50000000  1.0
  S2-  S3  1  0.50000000  0.00000000  0.50000000  1.0
  S2-  S3  1  0.00000000  0.50000000  0.00000000  1.0
  S2-  S3  1  0.50000000  0.50000000  0.00000000  1.0
  S2-  S3  1  0.00000000  0.50000000  0.50000000  1.0
  S2-  S3  1  0.50000000  0.50000000  0.50000000  1.0
  S2-  S3  1  0.25000000  0.00000000  0.00000000  1.0
  S2-  S3  1  0.75000000  0.00000000  0.00000000  1.0
  S2-  S3  1  0.25000000  0.00000000  0.50000000  1.0
  S2-  S3  1  0.75000000  0.00000000  0.50000000  1.0
  S2-  S3  1  0.25000000  0.50000000  0.00000000  1.0
  S2-  S3  1  0.75000000  0.50000000  0.00000000  1.0
  S2-  S3  1  0.25000000  0.50000000  0.50000000  1.0
  S2-  S3  1  0.75000000  0.50000000  0.50000000  1.0
