# generated using pymatgen
data_Li3ErCl6
_symmetry_space_group_name_H-M   'P 1'
_cell_length_a   12.07760000
_cell_length_b   11.16600000
_cell_length_c   33.49800000
_cell_angle_alpha   120.00000000
_cell_angle_beta   90.00000000
_cell_angle_gamma   90.00000000
_symmetry_Int_Tables_number   1
_chemical_formula_structural   Li3ErCl6
_chemical_formula_sum   'Li54 Er18 Cl108'
_cell_volume   3912.26059613
_cell_formula_units_Z   18
loop_
 _symmetry_equiv_pos_site_id
 _symmetry_equiv_pos_as_xyz
  1  'x, y, z'
loop_
 _atom_type_symbol
 _atom_type_oxidation_number
  Li+  1.0
  Er3+  3.0
  Cl-  -1.0
loop_
 _atom_site_type_symbol
 _atom_site_label
 _atom_site_symmetry_multiplicity
 _atom_site_fract_x
 _atom_site_fract_y
 _atom_site_fract_z
 _atom_site_occupancy
  Li+  Li0  1  0.00129866  0.00087802  0.52656844  1.0
  Li+  Li1  1  0.00000000  0.00000000  0.19656667  1.0
  Li+  Li2  1  0.00000000  0.00000000  0.86323333  1.0
  Li+  Li3  1  0.50267374  0.00370535  0.53108471  1.0
  Li+  Li4  1  0.50000000  0.00000000  0.19656667  1.0
  Li+  Li5  1  0.50257981  0.99705769  0.86096094  1.0
  Li+  Li6  1  0.99936182  0.99868927  0.63764000  1.0
  Li+  Li7  1  0.00000000  0.00000000  0.30343333  1.0
  Li+  Li8  1  0.00000000  0.00000000  0.97010000  1.0
  Li+  Li9  1  0.49698336  0.00286921  0.63703432  1.0
  Li+  Li10  1  0.50000000  0.00000000  0.30343333  1.0
  Li+  Li11  1  0.50000000  0.00000000  0.97010000  1.0
  Li+  Li12  1  0.50000000  0.33970000  0.75000000  1.0
  Li+  Li13  1  0.50447204  0.34116045  0.41533297  1.0
  Li+  Li14  1  0.50149639  0.34084356  0.08172912  1.0
  Li+  Li15  1  0.00000000  0.33970000  0.75000000  1.0
  Li+  Li16  1  0.99574601  0.33722349  0.41212083  1.0
  Li+  Li17  1  0.00000000  0.33970000  0.08333333  1.0
  Li+  Li18  1  0.00388292  0.65976777  0.75431453  1.0
  Li+  Li19  1  0.00000000  0.66030000  0.41666667  1.0
  Li+  Li20  1  0.00000000  0.66030000  0.08333333  1.0
  Li+  Li21  1  0.50000000  0.66030000  0.75000000  1.0
  Li+  Li22  1  0.50000000  0.66030000  0.41666667  1.0
  Li+  Li23  1  0.50000000  0.66030000  0.08333333  1.0
  Li+  Li24  1  0.00000000  0.66030000  0.63676667  1.0
  Li+  Li25  1  0.00000000  0.66030000  0.30343333  1.0
  Li+  Li26  1  0.00000000  0.66030000  0.97010000  1.0
  Li+  Li27  1  0.50000000  0.66030000  0.63676667  1.0
  Li+  Li28  1  0.50000000  0.66030000  0.30343333  1.0
  Li+  Li29  1  0.50643921  0.66072589  0.97007230  1.0
  Li+  Li30  1  0.00000000  0.33970000  0.52990000  1.0
  Li+  Li31  1  0.00000000  0.33970000  0.19656667  1.0
  Li+  Li32  1  0.00000000  0.33970000  0.86323333  1.0
  Li+  Li33  1  0.50000000  0.33970000  0.52990000  1.0
  Li+  Li34  1  0.50000000  0.33970000  0.19656667  1.0
  Li+  Li35  1  0.50000000  0.33970000  0.86323333  1.0
  Li+  Li36  1  0.24818311  0.99730024  0.53242126  1.0
  Li+  Li37  1  0.25000000  0.00000000  0.19656667  1.0
  Li+  Li38  1  0.25000000  0.00000000  0.86323333  1.0
  Li+  Li39  1  0.75000000  0.00000000  0.52990000  1.0
  Li+  Li40  1  0.75266866  0.00170715  0.19457490  1.0
  Li+  Li41  1  0.75000000  0.00000000  0.86323333  1.0
  Li+  Li42  1  0.25000000  0.33970000  0.75000000  1.0
  Li+  Li43  1  0.25000000  0.33970000  0.41666667  1.0
  Li+  Li44  1  0.25000000  0.33970000  0.08333333  1.0
  Li+  Li45  1  0.75000000  0.33970000  0.75000000  1.0
  Li+  Li46  1  0.75000000  0.33970000  0.41666667  1.0
  Li+  Li47  1  0.75000000  0.33970000  0.08333333  1.0
  Li+  Li48  1  0.75490783  0.66017568  0.63367365  1.0
  Li+  Li49  1  0.75000000  0.66030000  0.30343333  1.0
  Li+  Li50  1  0.75000000  0.66030000  0.97010000  1.0
  Li+  Li51  1  0.25000000  0.33970000  0.52990000  1.0
  Li+  Li52  1  0.25042590  0.33661527  0.19700850  1.0
  Li+  Li53  1  0.25000000  0.33970000  0.86323333  1.0
  Er3+  Er54  1  0.00000000  0.00000000  0.75000000  1.0
  Er3+  Er55  1  0.00000000  0.00000000  0.41666667  1.0
  Er3+  Er56  1  0.00000000  0.00000000  0.08333333  1.0
  Er3+  Er57  1  0.50000000  0.00000000  0.75000000  1.0
  Er3+  Er58  1  0.50000000  0.00000000  0.41666667  1.0
  Er3+  Er59  1  0.49525337  0.99945692  0.08357978  1.0
  Er3+  Er60  1  0.24494200  0.66513566  0.52500180  1.0
  Er3+  Er61  1  0.24180000  0.66666667  0.19444444  1.0
  Er3+  Er62  1  0.24180000  0.66666667  0.86111111  1.0
  Er3+  Er63  1  0.74180000  0.66666667  0.52777778  1.0
  Er3+  Er64  1  0.74180000  0.66666667  0.19444444  1.0
  Er3+  Er65  1  0.74180000  0.66666667  0.86111111  1.0
  Er3+  Er66  1  0.25820000  0.33333333  0.63888889  1.0
  Er3+  Er67  1  0.26000398  0.33641493  0.30805949  1.0
  Er3+  Er68  1  0.25820000  0.33333333  0.97222222  1.0
  Er3+  Er69  1  0.75820000  0.33333333  0.63888889  1.0
  Er3+  Er70  1  0.75820000  0.33333333  0.30555556  1.0
  Er3+  Er71  1  0.75820000  0.33333333  0.97222222  1.0
  Cl-  Cl72  1  0.11850000  0.22600000  0.45433333  1.0
  Cl-  Cl73  1  0.12199243  0.22535831  0.11800414  1.0
  Cl-  Cl74  1  0.11850000  0.22600000  0.78766667  1.0
  Cl-  Cl75  1  0.61504270  0.22311197  0.45385680  1.0
  Cl-  Cl76  1  0.61850000  0.22600000  0.12100000  1.0
  Cl-  Cl77  1  0.61850000  0.22600000  0.78766667  1.0
  Cl-  Cl78  1  0.38150000  0.77400000  0.71233333  1.0
  Cl-  Cl79  1  0.38150000  0.77400000  0.37900000  1.0
  Cl-  Cl80  1  0.38150000  0.77400000  0.04566667  1.0
  Cl-  Cl81  1  0.87785863  0.77221099  0.71596302  1.0
  Cl-  Cl82  1  0.88150000  0.77400000  0.37900000  1.0
  Cl-  Cl83  1  0.88150000  0.77400000  0.04566667  1.0
  Cl-  Cl84  1  0.11884120  0.88527395  0.67591464  1.0
  Cl-  Cl85  1  0.11850000  0.88700000  0.34133333  1.0
  Cl-  Cl86  1  0.11850000  0.88700000  0.00800000  1.0
  Cl-  Cl87  1  0.61850000  0.88700000  0.67466667  1.0
  Cl-  Cl88  1  0.61850000  0.88700000  0.34133333  1.0
  Cl-  Cl89  1  0.61850000  0.88700000  0.00800000  1.0
  Cl-  Cl90  1  0.11850000  0.88700000  0.45433333  1.0
  Cl-  Cl91  1  0.11850000  0.88700000  0.12100000  1.0
  Cl-  Cl92  1  0.11850000  0.88700000  0.78766667  1.0
  Cl-  Cl93  1  0.61850000  0.88700000  0.45433333  1.0
  Cl-  Cl94  1  0.61850000  0.88700000  0.12100000  1.0
  Cl-  Cl95  1  0.61850000  0.88700000  0.78766667  1.0
  Cl-  Cl96  1  0.38150000  0.11300000  0.71233333  1.0
  Cl-  Cl97  1  0.38039093  0.11427723  0.38099230  1.0
  Cl-  Cl98  1  0.38068777  0.11825247  0.04377184  1.0
  Cl-  Cl99  1  0.88150000  0.11300000  0.71233333  1.0
  Cl-  Cl100  1  0.87931863  0.11030037  0.38049264  1.0
  Cl-  Cl101  1  0.88150000  0.11300000  0.04566667  1.0
  Cl-  Cl102  1  0.38150000  0.11300000  0.49200000  1.0
  Cl-  Cl103  1  0.38150000  0.11300000  0.15866667  1.0
  Cl-  Cl104  1  0.38334399  0.11228269  0.82156568  1.0
  Cl-  Cl105  1  0.88150000  0.11300000  0.49200000  1.0
  Cl-  Cl106  1  0.88150000  0.11300000  0.15866667  1.0
  Cl-  Cl107  1  0.88150000  0.11300000  0.82533333  1.0
  Cl-  Cl108  1  0.36350000  0.44660000  0.49110000  1.0
  Cl-  Cl109  1  0.36350000  0.44660000  0.15776667  1.0
  Cl-  Cl110  1  0.36517116  0.44711342  0.82337186  1.0
  Cl-  Cl111  1  0.86350000  0.44660000  0.49110000  1.0
  Cl-  Cl112  1  0.86350000  0.44660000  0.15776667  1.0
  Cl-  Cl113  1  0.86408676  0.44236042  0.82471729  1.0
  Cl-  Cl114  1  0.13650000  0.55340000  0.67556667  1.0
  Cl-  Cl115  1  0.13650000  0.55340000  0.34223333  1.0
  Cl-  Cl116  1  0.13650000  0.55340000  0.00890000  1.0
  Cl-  Cl117  1  0.63650000  0.55340000  0.67556667  1.0
  Cl-  Cl118  1  0.63650000  0.55340000  0.34223333  1.0
  Cl-  Cl119  1  0.63650000  0.55340000  0.00890000  1.0
  Cl-  Cl120  1  0.36350000  0.77670000  0.60113333  1.0
  Cl-  Cl121  1  0.36350000  0.77670000  0.26780000  1.0
  Cl-  Cl122  1  0.36350000  0.77670000  0.93446667  1.0
  Cl-  Cl123  1  0.86361545  0.77699083  0.59790255  1.0
  Cl-  Cl124  1  0.86350000  0.77670000  0.26780000  1.0
  Cl-  Cl125  1  0.86224088  0.77576460  0.93464403  1.0
  Cl-  Cl126  1  0.36350000  0.77670000  0.49110000  1.0
  Cl-  Cl127  1  0.36199586  0.77783137  0.15275027  1.0
  Cl-  Cl128  1  0.36113102  0.77691623  0.82494470  1.0
  Cl-  Cl129  1  0.86350000  0.77670000  0.49110000  1.0
  Cl-  Cl130  1  0.86350000  0.77670000  0.15776667  1.0
  Cl-  Cl131  1  0.86350000  0.77670000  0.82443333  1.0
  Cl-  Cl132  1  0.13650000  0.22330000  0.67556667  1.0
  Cl-  Cl133  1  0.13650000  0.22330000  0.34223333  1.0
  Cl-  Cl134  1  0.14332843  0.22383109  0.00574817  1.0
  Cl-  Cl135  1  0.63650000  0.22330000  0.67556667  1.0
  Cl-  Cl136  1  0.63650000  0.22330000  0.34223333  1.0
  Cl-  Cl137  1  0.63650000  0.22330000  0.00890000  1.0
  Cl-  Cl138  1  0.13650000  0.22330000  0.56553333  1.0
  Cl-  Cl139  1  0.13650000  0.22330000  0.23220000  1.0
  Cl-  Cl140  1  0.13650000  0.22330000  0.89886667  1.0
  Cl-  Cl141  1  0.63711877  0.22650609  0.56862936  1.0
  Cl-  Cl142  1  0.63650000  0.22330000  0.23220000  1.0
  Cl-  Cl143  1  0.63461031  0.22235462  0.89747245  1.0
  Cl-  Cl144  1  0.12650000  0.89400000  0.56566667  1.0
  Cl-  Cl145  1  0.12650000  0.89400000  0.23233333  1.0
  Cl-  Cl146  1  0.12650000  0.89400000  0.89900000  1.0
  Cl-  Cl147  1  0.62650000  0.89400000  0.56566667  1.0
  Cl-  Cl148  1  0.62650000  0.89400000  0.23233333  1.0
  Cl-  Cl149  1  0.62650000  0.89400000  0.89900000  1.0
  Cl-  Cl150  1  0.37350000  0.10600000  0.60100000  1.0
  Cl-  Cl151  1  0.37350000  0.10600000  0.26766667  1.0
  Cl-  Cl152  1  0.37626688  0.10498728  0.93127322  1.0
  Cl-  Cl153  1  0.87414798  0.10865620  0.60174197  1.0
  Cl-  Cl154  1  0.87350000  0.10600000  0.26766667  1.0
  Cl-  Cl155  1  0.87391232  0.10626966  0.93754124  1.0
  Cl-  Cl156  1  0.12650000  0.55300000  0.45200000  1.0
  Cl-  Cl157  1  0.12403011  0.55207177  0.11976259  1.0
  Cl-  Cl158  1  0.12650000  0.55300000  0.78533333  1.0
  Cl-  Cl159  1  0.62592662  0.55143461  0.45392315  1.0
  Cl-  Cl160  1  0.62650000  0.55300000  0.11866667  1.0
  Cl-  Cl161  1  0.62650000  0.55300000  0.78533333  1.0
  Cl-  Cl162  1  0.12677074  0.55435105  0.56834251  1.0
  Cl-  Cl163  1  0.12650000  0.55300000  0.23233333  1.0
  Cl-  Cl164  1  0.12239847  0.55144825  0.89916699  1.0
  Cl-  Cl165  1  0.62321294  0.54900717  0.56724923  1.0
  Cl-  Cl166  1  0.62650000  0.55300000  0.23233333  1.0
  Cl-  Cl167  1  0.62650000  0.55300000  0.89900000  1.0
  Cl-  Cl168  1  0.37132219  0.44749596  0.60058810  1.0
  Cl-  Cl169  1  0.37350000  0.44700000  0.26766667  1.0
  Cl-  Cl170  1  0.37350000  0.44700000  0.93433333  1.0
  Cl-  Cl171  1  0.87425202  0.44699480  0.59976638  1.0
  Cl-  Cl172  1  0.87381308  0.45235758  0.27137181  1.0
  Cl-  Cl173  1  0.87350000  0.44700000  0.93433333  1.0
  Cl-  Cl174  1  0.37350000  0.44700000  0.71466667  1.0
  Cl-  Cl175  1  0.37350000  0.44700000  0.38133333  1.0
  Cl-  Cl176  1  0.37350000  0.44700000  0.04800000  1.0
  Cl-  Cl177  1  0.87350000  0.44700000  0.71466667  1.0
  Cl-  Cl178  1  0.87350000  0.44700000  0.38133333  1.0
  Cl-  Cl179  1  0.87350000  0.44700000  0.04800000  1.0
