# generated using pymatgen
data_Li3ErCl6
_symmetry_space_group_name_H-M   'P 1'
_cell_length_a   33.48407904
_cell_length_b   12.07258084
_cell_length_c   11.16135968
_cell_angle_alpha   90.00000000
_cell_angle_beta   60.00000000
_cell_angle_gamma   90.00000000
_symmetry_Int_Tables_number   1
_chemical_formula_structural   Li3ErCl6
_chemical_formula_sum   'Li54 Er18 Cl108'
_cell_volume   3907.38509937
_cell_formula_units_Z   18
loop_
 _symmetry_equiv_pos_site_id
 _symmetry_equiv_pos_as_xyz
  1  'x, y, z'
loop_
 _atom_type_symbol
 _atom_type_oxidation_number
  Li+  1.0
  Er3+  3.0
  Cl-  -1.0
loop_
 _atom_site_type_symbol
 _atom_site_label
 _atom_site_symmetry_multiplicity
 _atom_site_fract_x
 _atom_site_fract_y
 _atom_site_fract_z
 _atom_site_occupancy
  Li+  Li0  1  0.77990000  0.66666667  0.00000000  1.0
  Li+  Li1  1  0.44656667  0.66666667  0.00000000  1.0
  Li+  Li2  1  0.11323333  0.66666667  0.00000000  1.0
  Li+  Li3  1  0.77990000  0.16666667  0.00000000  1.0
  Li+  Li4  1  0.44656667  0.16666667  0.00000000  1.0
  Li+  Li5  1  0.11323333  0.16666667  0.00000000  1.0
  Li+  Li6  1  0.88676667  0.66666667  0.00000000  1.0
  Li+  Li7  1  0.55343333  0.66666667  0.00000000  1.0
  Li+  Li8  1  0.22010000  0.66666667  0.00000000  1.0
  Li+  Li9  1  0.88676667  0.16666667  0.00000000  1.0
  Li+  Li10  1  0.55343333  0.16666667  0.00000000  1.0
  Li+  Li11  1  0.22010000  0.16666667  0.00000000  1.0
  Li+  Li12  1  0.00000000  0.16666667  0.66030000  1.0
  Li+  Li13  1  0.66666667  0.16666667  0.66030000  1.0
  Li+  Li14  1  0.33333333  0.16666667  0.66030000  1.0
  Li+  Li15  1  0.00000000  0.66666667  0.66030000  1.0
  Li+  Li16  1  0.66666667  0.66666667  0.66030000  1.0
  Li+  Li17  1  0.33333333  0.66666667  0.66030000  1.0
  Li+  Li18  1  0.00000000  0.66666667  0.33970000  1.0
  Li+  Li19  1  0.66666667  0.66666667  0.33970000  1.0
  Li+  Li20  1  0.33333333  0.66666667  0.33970000  1.0
  Li+  Li21  1  0.00000000  0.16666667  0.33970000  1.0
  Li+  Li22  1  0.66666667  0.16666667  0.33970000  1.0
  Li+  Li23  1  0.33333333  0.16666667  0.33970000  1.0
  Li+  Li24  1  0.88676667  0.66666667  0.33970000  1.0
  Li+  Li25  1  0.55343333  0.66666667  0.33970000  1.0
  Li+  Li26  1  0.22010000  0.66666667  0.33970000  1.0
  Li+  Li27  1  0.88676667  0.16666667  0.33970000  1.0
  Li+  Li28  1  0.55343333  0.16666667  0.33970000  1.0
  Li+  Li29  1  0.22010000  0.16666667  0.33970000  1.0
  Li+  Li30  1  0.77990000  0.66666667  0.66030000  1.0
  Li+  Li31  1  0.44656667  0.66666667  0.66030000  1.0
  Li+  Li32  1  0.11323333  0.66666667  0.66030000  1.0
  Li+  Li33  1  0.77990000  0.16666667  0.66030000  1.0
  Li+  Li34  1  0.44656667  0.16666667  0.66030000  1.0
  Li+  Li35  1  0.11323333  0.16666667  0.66030000  1.0
  Li+  Li36  1  0.77990000  0.41666667  0.00000000  1.0
  Li+  Li37  1  0.44656667  0.41666667  0.00000000  1.0
  Li+  Li38  1  0.11323333  0.41666667  0.00000000  1.0
  Li+  Li39  1  0.77990000  0.91666667  0.00000000  1.0
  Li+  Li40  1  0.44656667  0.91666667  0.00000000  1.0
  Li+  Li41  1  0.11323333  0.91666667  0.00000000  1.0
  Li+  Li42  1  0.00000000  0.41666667  0.66030000  1.0
  Li+  Li43  1  0.66666667  0.41666667  0.66030000  1.0
  Li+  Li44  1  0.33333333  0.41666667  0.66030000  1.0
  Li+  Li45  1  0.00000000  0.91666667  0.66030000  1.0
  Li+  Li46  1  0.66666667  0.91666667  0.66030000  1.0
  Li+  Li47  1  0.33333333  0.91666667  0.66030000  1.0
  Li+  Li48  1  0.88676667  0.91666667  0.33970000  1.0
  Li+  Li49  1  0.55343333  0.91666667  0.33970000  1.0
  Li+  Li50  1  0.22010000  0.91666667  0.33970000  1.0
  Li+  Li51  1  0.77990000  0.41666667  0.66030000  1.0
  Li+  Li52  1  0.44656667  0.41666667  0.66030000  1.0
  Li+  Li53  1  0.11323333  0.41666667  0.66030000  1.0
  Er3+  Er54  1  0.00000000  0.66666667  0.00000000  1.0
  Er3+  Er55  1  0.66666667  0.66666667  0.00000000  1.0
  Er3+  Er56  1  0.33333333  0.66666667  0.00000000  1.0
  Er3+  Er57  1  0.00000000  0.16666667  0.00000000  1.0
  Er3+  Er58  1  0.66666667  0.16666667  0.00000000  1.0
  Er3+  Er59  1  0.33333333  0.16666667  0.00000000  1.0
  Er3+  Er60  1  0.77777778  0.42486667  0.33333333  1.0
  Er3+  Er61  1  0.44444444  0.42486667  0.33333333  1.0
  Er3+  Er62  1  0.11111111  0.42486667  0.33333333  1.0
  Er3+  Er63  1  0.77777778  0.92486667  0.33333333  1.0
  Er3+  Er64  1  0.44444444  0.92486667  0.33333333  1.0
  Er3+  Er65  1  0.11111111  0.92486667  0.33333333  1.0
  Er3+  Er66  1  0.88888889  0.40846667  0.66666667  1.0
  Er3+  Er67  1  0.55555556  0.40846667  0.66666667  1.0
  Er3+  Er68  1  0.22222222  0.40846667  0.66666667  1.0
  Er3+  Er69  1  0.88888889  0.90846667  0.66666667  1.0
  Er3+  Er70  1  0.55555556  0.90846667  0.66666667  1.0
  Er3+  Er71  1  0.22222222  0.90846667  0.66666667  1.0
  Cl-  Cl72  1  0.70433333  0.54816667  0.77400000  1.0
  Cl-  Cl73  1  0.37100000  0.54816667  0.77400000  1.0
  Cl-  Cl74  1  0.03766667  0.54816667  0.77400000  1.0
  Cl-  Cl75  1  0.70433333  0.04816667  0.77400000  1.0
  Cl-  Cl76  1  0.37100000  0.04816667  0.77400000  1.0
  Cl-  Cl77  1  0.03766667  0.04816667  0.77400000  1.0
  Cl-  Cl78  1  0.96233333  0.28516667  0.22600000  1.0
  Cl-  Cl79  1  0.62900000  0.28516667  0.22600000  1.0
  Cl-  Cl80  1  0.29566667  0.28516667  0.22600000  1.0
  Cl-  Cl81  1  0.96233333  0.78516667  0.22600000  1.0
  Cl-  Cl82  1  0.62900000  0.78516667  0.22600000  1.0
  Cl-  Cl83  1  0.29566667  0.78516667  0.22600000  1.0
  Cl-  Cl84  1  0.92466667  0.54816667  0.11300000  1.0
  Cl-  Cl85  1  0.59133333  0.54816667  0.11300000  1.0
  Cl-  Cl86  1  0.25800000  0.54816667  0.11300000  1.0
  Cl-  Cl87  1  0.92466667  0.04816667  0.11300000  1.0
  Cl-  Cl88  1  0.59133333  0.04816667  0.11300000  1.0
  Cl-  Cl89  1  0.25800000  0.04816667  0.11300000  1.0
  Cl-  Cl90  1  0.70433333  0.54816667  0.11300000  1.0
  Cl-  Cl91  1  0.37100000  0.54816667  0.11300000  1.0
  Cl-  Cl92  1  0.03766667  0.54816667  0.11300000  1.0
  Cl-  Cl93  1  0.70433333  0.04816667  0.11300000  1.0
  Cl-  Cl94  1  0.37100000  0.04816667  0.11300000  1.0
  Cl-  Cl95  1  0.03766667  0.04816667  0.11300000  1.0
  Cl-  Cl96  1  0.96233333  0.28516667  0.88700000  1.0
  Cl-  Cl97  1  0.62900000  0.28516667  0.88700000  1.0
  Cl-  Cl98  1  0.29566667  0.28516667  0.88700000  1.0
  Cl-  Cl99  1  0.96233333  0.78516667  0.88700000  1.0
  Cl-  Cl100  1  0.62900000  0.78516667  0.88700000  1.0
  Cl-  Cl101  1  0.29566667  0.78516667  0.88700000  1.0
  Cl-  Cl102  1  0.74200000  0.28516667  0.88700000  1.0
  Cl-  Cl103  1  0.40866667  0.28516667  0.88700000  1.0
  Cl-  Cl104  1  0.07533333  0.28516667  0.88700000  1.0
  Cl-  Cl105  1  0.74200000  0.78516667  0.88700000  1.0
  Cl-  Cl106  1  0.40866667  0.78516667  0.88700000  1.0
  Cl-  Cl107  1  0.07533333  0.78516667  0.88700000  1.0
  Cl-  Cl108  1  0.74110000  0.30316667  0.55340000  1.0
  Cl-  Cl109  1  0.40776667  0.30316667  0.55340000  1.0
  Cl-  Cl110  1  0.07443333  0.30316667  0.55340000  1.0
  Cl-  Cl111  1  0.74110000  0.80316667  0.55340000  1.0
  Cl-  Cl112  1  0.40776667  0.80316667  0.55340000  1.0
  Cl-  Cl113  1  0.07443333  0.80316667  0.55340000  1.0
  Cl-  Cl114  1  0.92556667  0.53016667  0.44660000  1.0
  Cl-  Cl115  1  0.59223333  0.53016667  0.44660000  1.0
  Cl-  Cl116  1  0.25890000  0.53016667  0.44660000  1.0
  Cl-  Cl117  1  0.92556667  0.03016667  0.44660000  1.0
  Cl-  Cl118  1  0.59223333  0.03016667  0.44660000  1.0
  Cl-  Cl119  1  0.25890000  0.03016667  0.44660000  1.0
  Cl-  Cl120  1  0.85113333  0.30316667  0.22330000  1.0
  Cl-  Cl121  1  0.51780000  0.30316667  0.22330000  1.0
  Cl-  Cl122  1  0.18446667  0.30316667  0.22330000  1.0
  Cl-  Cl123  1  0.85113333  0.80316667  0.22330000  1.0
  Cl-  Cl124  1  0.51780000  0.80316667  0.22330000  1.0
  Cl-  Cl125  1  0.18446667  0.80316667  0.22330000  1.0
  Cl-  Cl126  1  0.74110000  0.30316667  0.22330000  1.0
  Cl-  Cl127  1  0.40776667  0.30316667  0.22330000  1.0
  Cl-  Cl128  1  0.07443333  0.30316667  0.22330000  1.0
  Cl-  Cl129  1  0.74110000  0.80316667  0.22330000  1.0
  Cl-  Cl130  1  0.40776667  0.80316667  0.22330000  1.0
  Cl-  Cl131  1  0.07443333  0.80316667  0.22330000  1.0
  Cl-  Cl132  1  0.92556667  0.53016667  0.77670000  1.0
  Cl-  Cl133  1  0.59223333  0.53016667  0.77670000  1.0
  Cl-  Cl134  1  0.25890000  0.53016667  0.77670000  1.0
  Cl-  Cl135  1  0.92556667  0.03016667  0.77670000  1.0
  Cl-  Cl136  1  0.59223333  0.03016667  0.77670000  1.0
  Cl-  Cl137  1  0.25890000  0.03016667  0.77670000  1.0
  Cl-  Cl138  1  0.81553333  0.53016667  0.77670000  1.0
  Cl-  Cl139  1  0.48220000  0.53016667  0.77670000  1.0
  Cl-  Cl140  1  0.14886667  0.53016667  0.77670000  1.0
  Cl-  Cl141  1  0.81553333  0.03016667  0.77670000  1.0
  Cl-  Cl142  1  0.48220000  0.03016667  0.77670000  1.0
  Cl-  Cl143  1  0.14886667  0.03016667  0.77670000  1.0
  Cl-  Cl144  1  0.81566667  0.54016667  0.10600000  1.0
  Cl-  Cl145  1  0.48233333  0.54016667  0.10600000  1.0
  Cl-  Cl146  1  0.14900000  0.54016667  0.10600000  1.0
  Cl-  Cl147  1  0.81566667  0.04016667  0.10600000  1.0
  Cl-  Cl148  1  0.48233333  0.04016667  0.10600000  1.0
  Cl-  Cl149  1  0.14900000  0.04016667  0.10600000  1.0
  Cl-  Cl150  1  0.85100000  0.29316667  0.89400000  1.0
  Cl-  Cl151  1  0.51766667  0.29316667  0.89400000  1.0
  Cl-  Cl152  1  0.18433333  0.29316667  0.89400000  1.0
  Cl-  Cl153  1  0.85100000  0.79316667  0.89400000  1.0
  Cl-  Cl154  1  0.51766667  0.79316667  0.89400000  1.0
  Cl-  Cl155  1  0.18433333  0.79316667  0.89400000  1.0
  Cl-  Cl156  1  0.70200000  0.54016667  0.44700000  1.0
  Cl-  Cl157  1  0.36866667  0.54016667  0.44700000  1.0
  Cl-  Cl158  1  0.03533333  0.54016667  0.44700000  1.0
  Cl-  Cl159  1  0.70200000  0.04016667  0.44700000  1.0
  Cl-  Cl160  1  0.36866667  0.04016667  0.44700000  1.0
  Cl-  Cl161  1  0.03533333  0.04016667  0.44700000  1.0
  Cl-  Cl162  1  0.81566667  0.54016667  0.44700000  1.0
  Cl-  Cl163  1  0.48233333  0.54016667  0.44700000  1.0
  Cl-  Cl164  1  0.14900000  0.54016667  0.44700000  1.0
  Cl-  Cl165  1  0.81566667  0.04016667  0.44700000  1.0
  Cl-  Cl166  1  0.48233333  0.04016667  0.44700000  1.0
  Cl-  Cl167  1  0.14900000  0.04016667  0.44700000  1.0
  Cl-  Cl168  1  0.85100000  0.29316667  0.55300000  1.0
  Cl-  Cl169  1  0.51766667  0.29316667  0.55300000  1.0
  Cl-  Cl170  1  0.18433333  0.29316667  0.55300000  1.0
  Cl-  Cl171  1  0.85100000  0.79316667  0.55300000  1.0
  Cl-  Cl172  1  0.51766667  0.79316667  0.55300000  1.0
  Cl-  Cl173  1  0.18433333  0.79316667  0.55300000  1.0
  Cl-  Cl174  1  0.96466667  0.29316667  0.55300000  1.0
  Cl-  Cl175  1  0.63133333  0.29316667  0.55300000  1.0
  Cl-  Cl176  1  0.29800000  0.29316667  0.55300000  1.0
  Cl-  Cl177  1  0.96466667  0.79316667  0.55300000  1.0
  Cl-  Cl178  1  0.63133333  0.79316667  0.55300000  1.0
  Cl-  Cl179  1  0.29800000  0.79316667  0.55300000  1.0
