# generated using pymatgen
data_Li3ErCl6
_symmetry_space_group_name_H-M   'P 1'
_cell_length_a   12.07760000
_cell_length_b   33.49800000
_cell_length_c   11.16600000
_cell_angle_alpha   120.00000000
_cell_angle_beta   90.00000000
_cell_angle_gamma   90.00000000
_symmetry_Int_Tables_number   1
_chemical_formula_structural   Li3ErCl6
_chemical_formula_sum   'Li54 Er18 Cl108'
_cell_volume   3912.26059613
_cell_formula_units_Z   18
loop_
 _symmetry_equiv_pos_site_id
 _symmetry_equiv_pos_as_xyz
  1  'x, y, z'
loop_
 _atom_type_symbol
 _atom_type_oxidation_number
  Li+  1.0
  Er3+  3.0
  Cl-  -1.0
loop_
 _atom_site_type_symbol
 _atom_site_label
 _atom_site_symmetry_multiplicity
 _atom_site_fract_x
 _atom_site_fract_y
 _atom_site_fract_z
 _atom_site_occupancy
  Li+  Li6g  1  0.00000000  0.22010000  0.00000000  1.0
  Li+  Li6g  1  0.00000000  0.55343333  1.00000000  1.0
  Li+  Li6g  1  0.00000000  0.88676667  0.00000000  1.0
  Li+  Li6g  1  0.50000000  0.22010000  0.00000000  1.0
  Li+  Li6g  1  0.50000000  0.55343333  0.00000000  1.0
  Li+  Li6g  1  0.50000000  0.88676667  0.00000000  1.0
  Li+  Li6g  1  0.00000000  0.11323333  0.00000000  1.0
  Li+  Li6g  1  0.00000000  0.44656667  0.00000000  1.0
  Li+  Li6g  1  0.00000000  0.77990000  0.00000000  1.0
  Li+  Li6g  1  0.50000000  0.11323333  0.00000000  1.0
  Li+  Li6g  1  0.50000000  0.44656667  1.00000000  1.0
  Li+  Li6g  1  0.50000000  0.77990000  0.00000000  1.0
  Li+  Li6g  1  0.50000000  0.00000000  0.66030000  1.0
  Li+  Li6g  1  0.50000000  0.33333333  0.66030000  1.0
  Li+  Li6g  1  0.50000000  0.66666667  0.66030000  1.0
  Li+  Li6g  1  0.00000000  0.00000000  0.66030000  1.0
  Li+  Li6g  1  0.00000000  0.33333333  0.66030000  1.0
  Li+  Li6g  1  0.00000000  0.66666667  0.66030000  1.0
  Li+  Li6g  1  0.00000000  0.00000000  0.33970000  1.0
  Li+  Li6g  1  0.00000000  0.33333333  0.33970000  1.0
  Li+  Li6g  1  0.00000000  0.66666667  0.33970000  1.0
  Li+  Li6g  1  0.50000000  0.00000000  0.33970000  1.0
  Li+  Li6g  1  0.50000000  0.33333333  0.33970000  1.0
  Li+  Li6g  1  0.50000000  0.66666667  0.33970000  1.0
  Li+  Li6g  1  0.00000000  0.11323333  0.33970000  1.0
  Li+  Li6g  1  0.00000000  0.44656667  0.33970000  1.0
  Li+  Li6g  1  0.00000000  0.77990000  0.33970000  1.0
  Li+  Li6g  1  0.50000000  0.11323333  0.33970000  1.0
  Li+  Li6g  1  0.50000000  0.44656667  0.33970000  1.0
  Li+  Li6g  1  0.50000000  0.77990000  0.33970000  1.0
  Li+  Li6g  1  0.00000000  0.22010000  0.66030000  1.0
  Li+  Li6g  1  0.00000000  0.55343333  0.66030000  1.0
  Li+  Li6g  1  0.00000000  0.88676667  0.66030000  1.0
  Li+  Li6g  1  0.50000000  0.22010000  0.66030000  1.0
  Li+  Li6g  1  0.50000000  0.55343333  0.66030000  1.0
  Li+  Li6g  1  0.50000000  0.88676667  0.66030000  1.0
  Li+  Li12  1  0.25000000  0.22010000  0.00000000  1.0
  Li+  Li12  1  0.25000000  0.55343333  0.00000000  1.0
  Li+  Li12  1  0.25000000  0.88676667  0.00000000  1.0
  Li+  Li13  1  0.75000000  0.22010000  0.00000000  1.0
  Li+  Li13  1  0.75000000  0.55343333  0.00000000  1.0
  Li+  Li13  1  0.75000000  0.88676667  0.00000000  1.0
  Li+  Li14  1  0.25000000  0.00000000  0.66030000  1.0
  Li+  Li14  1  0.25000000  0.33333333  0.66030000  1.0
  Li+  Li14  1  0.25000000  0.66666667  0.66030000  1.0
  Li+  Li15  1  0.75000000  0.00000000  0.66030000  1.0
  Li+  Li15  1  0.75000000  0.33333333  0.66030000  1.0
  Li+  Li15  1  0.75000000  0.66666667  0.66030000  1.0
  Li+  Li16  1  0.75000000  0.11323333  0.33970000  1.0
  Li+  Li16  1  0.75000000  0.44656667  0.33970000  1.0
  Li+  Li16  1  0.75000000  0.77990000  0.33970000  1.0
  Li+  Li17  1  0.25000000  0.22010000  0.66030000  1.0
  Li+  Li17  1  0.25000000  0.55343333  0.66030000  1.0
  Li+  Li17  1  0.25000000  0.88676667  0.66030000  1.0
  Er3+  Er1a  1  0.00000000  0.00000000  0.00000000  1.0
  Er3+  Er1a  1  0.00000000  0.33333333  0.00000000  1.0
  Er3+  Er1a  1  0.00000000  0.66666667  0.00000000  1.0
  Er3+  Er1a  1  0.50000000  0.00000000  0.00000000  1.0
  Er3+  Er1a  1  0.50000000  0.33333333  0.00000000  1.0
  Er3+  Er1a  1  0.50000000  0.66666667  0.00000000  1.0
  Er3+  Er20  1  0.24180000  0.22222222  0.33333333  1.0
  Er3+  Er20  1  0.24180000  0.55555556  0.33333333  1.0
  Er3+  Er20  1  0.24180000  0.88888889  0.33333333  1.0
  Er3+  Er21  1  0.74180000  0.22222222  0.33333333  1.0
  Er3+  Er21  1  0.74180000  0.55555556  0.33333333  1.0
  Er3+  Er21  1  0.74180000  0.88888889  0.33333333  1.0
  Er3+  Er22  1  0.25820000  0.11111111  0.66666667  1.0
  Er3+  Er22  1  0.25820000  0.44444444  0.66666667  1.0
  Er3+  Er22  1  0.25820000  0.77777778  0.66666667  1.0
  Er3+  Er23  1  0.75820000  0.11111111  0.66666667  1.0
  Er3+  Er23  1  0.75820000  0.44444444  0.66666667  1.0
  Er3+  Er23  1  0.75820000  0.77777778  0.66666667  1.0
  Cl-  Cl6i  1  0.11850000  0.29566667  0.77400000  1.0
  Cl-  Cl6i  1  0.11850000  0.62900000  0.77400000  1.0
  Cl-  Cl6i  1  0.11850000  0.96233333  0.77400000  1.0
  Cl-  Cl6i  1  0.61850000  0.29566667  0.77400000  1.0
  Cl-  Cl6i  1  0.61850000  0.62900000  0.77400000  1.0
  Cl-  Cl6i  1  0.61850000  0.96233333  0.77400000  1.0
  Cl-  Cl6i  1  0.38150000  0.03766667  0.22600000  1.0
  Cl-  Cl6i  1  0.38150000  0.37100000  0.22600000  1.0
  Cl-  Cl6i  1  0.38150000  0.70433333  0.22600000  1.0
  Cl-  Cl6i  1  0.88150000  0.03766667  0.22600000  1.0
  Cl-  Cl6i  1  0.88150000  0.37100000  0.22600000  1.0
  Cl-  Cl6i  1  0.88150000  0.70433333  0.22600000  1.0
  Cl-  Cl6i  1  0.11850000  0.07533333  0.11300000  1.0
  Cl-  Cl6i  1  0.11850000  0.40866667  0.11300000  1.0
  Cl-  Cl6i  1  0.11850000  0.74200000  0.11300000  1.0
  Cl-  Cl6i  1  0.61850000  0.07533333  0.11300000  1.0
  Cl-  Cl6i  1  0.61850000  0.40866667  0.11300000  1.0
  Cl-  Cl6i  1  0.61850000  0.74200000  0.11300000  1.0
  Cl-  Cl6i  1  0.11850000  0.29566667  0.11300000  1.0
  Cl-  Cl6i  1  0.11850000  0.62900000  0.11300000  1.0
  Cl-  Cl6i  1  0.11850000  0.96233333  0.11300000  1.0
  Cl-  Cl6i  1  0.61850000  0.29566667  0.11300000  1.0
  Cl-  Cl6i  1  0.61850000  0.62900000  0.11300000  1.0
  Cl-  Cl6i  1  0.61850000  0.96233333  0.11300000  1.0
  Cl-  Cl6i  1  0.38150000  0.03766667  0.88700000  1.0
  Cl-  Cl6i  1  0.38150000  0.37100000  0.88700000  1.0
  Cl-  Cl6i  1  0.38150000  0.70433333  0.88700000  1.0
  Cl-  Cl6i  1  0.88150000  0.03766667  0.88700000  1.0
  Cl-  Cl6i  1  0.88150000  0.37100000  0.88700000  1.0
  Cl-  Cl6i  1  0.88150000  0.70433333  0.88700000  1.0
  Cl-  Cl6i  1  0.38150000  0.25800000  0.88700000  1.0
  Cl-  Cl6i  1  0.38150000  0.59133333  0.88700000  1.0
  Cl-  Cl6i  1  0.38150000  0.92466667  0.88700000  1.0
  Cl-  Cl6i  1  0.88150000  0.25800000  0.88700000  1.0
  Cl-  Cl6i  1  0.88150000  0.59133333  0.88700000  1.0
  Cl-  Cl6i  1  0.88150000  0.92466667  0.88700000  1.0
  Cl-  Cl6i  1  0.36350000  0.25890000  0.55340000  1.0
  Cl-  Cl6i  1  0.36350000  0.59223333  0.55340000  1.0
  Cl-  Cl6i  1  0.36350000  0.92556667  0.55340000  1.0
  Cl-  Cl6i  1  0.86350000  0.25890000  0.55340000  1.0
  Cl-  Cl6i  1  0.86350000  0.59223333  0.55340000  1.0
  Cl-  Cl6i  1  0.86350000  0.92556667  0.55340000  1.0
  Cl-  Cl6i  1  0.13650000  0.07443333  0.44660000  1.0
  Cl-  Cl6i  1  0.13650000  0.40776667  0.44660000  1.0
  Cl-  Cl6i  1  0.13650000  0.74110000  0.44660000  1.0
  Cl-  Cl6i  1  0.63650000  0.07443333  0.44660000  1.0
  Cl-  Cl6i  1  0.63650000  0.40776667  0.44660000  1.0
  Cl-  Cl6i  1  0.63650000  0.74110000  0.44660000  1.0
  Cl-  Cl6i  1  0.36350000  0.14886667  0.22330000  1.0
  Cl-  Cl6i  1  0.36350000  0.48220000  0.22330000  1.0
  Cl-  Cl6i  1  0.36350000  0.81553333  0.22330000  1.0
  Cl-  Cl6i  1  0.86350000  0.14886667  0.22330000  1.0
  Cl-  Cl6i  1  0.86350000  0.48220000  0.22330000  1.0
  Cl-  Cl6i  1  0.86350000  0.81553333  0.22330000  1.0
  Cl-  Cl6i  1  0.36350000  0.25890000  0.22330000  1.0
  Cl-  Cl6i  1  0.36350000  0.59223333  0.22330000  1.0
  Cl-  Cl6i  1  0.36350000  0.92556667  0.22330000  1.0
  Cl-  Cl6i  1  0.86350000  0.25890000  0.22330000  1.0
  Cl-  Cl6i  1  0.86350000  0.59223333  0.22330000  1.0
  Cl-  Cl6i  1  0.86350000  0.92556667  0.22330000  1.0
  Cl-  Cl6i  1  0.13650000  0.07443333  0.77670000  1.0
  Cl-  Cl6i  1  0.13650000  0.40776667  0.77670000  1.0
  Cl-  Cl6i  1  0.13650000  0.74110000  0.77670000  1.0
  Cl-  Cl6i  1  0.63650000  0.07443333  0.77670000  1.0
  Cl-  Cl6i  1  0.63650000  0.40776667  0.77670000  1.0
  Cl-  Cl6i  1  0.63650000  0.74110000  0.77670000  1.0
  Cl-  Cl6i  1  0.13650000  0.18446667  0.77670000  1.0
  Cl-  Cl6i  1  0.13650000  0.51780000  0.77670000  1.0
  Cl-  Cl6i  1  0.13650000  0.85113333  0.77670000  1.0
  Cl-  Cl6i  1  0.63650000  0.18446667  0.77670000  1.0
  Cl-  Cl6i  1  0.63650000  0.51780000  0.77670000  1.0
  Cl-  Cl6i  1  0.63650000  0.85113333  0.77670000  1.0
  Cl-  Cl6i  1  0.12650000  0.18433333  0.10600000  1.0
  Cl-  Cl6i  1  0.12650000  0.51766667  0.10600000  1.0
  Cl-  Cl6i  1  0.12650000  0.85100000  0.10600000  1.0
  Cl-  Cl6i  1  0.62650000  0.18433333  0.10600000  1.0
  Cl-  Cl6i  1  0.62650000  0.51766667  0.10600000  1.0
  Cl-  Cl6i  1  0.62650000  0.85100000  0.10600000  1.0
  Cl-  Cl6i  1  0.37350000  0.14900000  0.89400000  1.0
  Cl-  Cl6i  1  0.37350000  0.48233333  0.89400000  1.0
  Cl-  Cl6i  1  0.37350000  0.81566667  0.89400000  1.0
  Cl-  Cl6i  1  0.87350000  0.14900000  0.89400000  1.0
  Cl-  Cl6i  1  0.87350000  0.48233333  0.89400000  1.0
  Cl-  Cl6i  1  0.87350000  0.81566667  0.89400000  1.0
  Cl-  Cl6i  1  0.12650000  0.29800000  0.44700000  1.0
  Cl-  Cl6i  1  0.12650000  0.63133333  0.44700000  1.0
  Cl-  Cl6i  1  0.12650000  0.96466667  0.44700000  1.0
  Cl-  Cl6i  1  0.62650000  0.29800000  0.44700000  1.0
  Cl-  Cl6i  1  0.62650000  0.63133333  0.44700000  1.0
  Cl-  Cl6i  1  0.62650000  0.96466667  0.44700000  1.0
  Cl-  Cl6i  1  0.12650000  0.18433333  0.44700000  1.0
  Cl-  Cl6i  1  0.12650000  0.51766667  0.44700000  1.0
  Cl-  Cl6i  1  0.12650000  0.85100000  0.44700000  1.0
  Cl-  Cl6i  1  0.62650000  0.18433333  0.44700000  1.0
  Cl-  Cl6i  1  0.62650000  0.51766667  0.44700000  1.0
  Cl-  Cl6i  1  0.62650000  0.85100000  0.44700000  1.0
  Cl-  Cl6i  1  0.37350000  0.14900000  0.55300000  1.0
  Cl-  Cl6i  1  0.37350000  0.48233333  0.55300000  1.0
  Cl-  Cl6i  1  0.37350000  0.81566667  0.55300000  1.0
  Cl-  Cl6i  1  0.87350000  0.14900000  0.55300000  1.0
  Cl-  Cl6i  1  0.87350000  0.48233333  0.55300000  1.0
  Cl-  Cl6i  1  0.87350000  0.81566667  0.55300000  1.0
  Cl-  Cl6i  1  0.37350000  0.03533333  0.55300000  1.0
  Cl-  Cl6i  1  0.37350000  0.36866667  0.55300000  1.0
  Cl-  Cl6i  1  0.37350000  0.70200000  0.55300000  1.0
  Cl-  Cl6i  1  0.87350000  0.03533333  0.55300000  1.0
  Cl-  Cl6i  1  0.87350000  0.36866667  0.55300000  1.0
  Cl-  Cl6i  1  0.87350000  0.70200000  0.55300000  1.0
