# generated using pymatgen
data_Li5La3Nb2O12
_symmetry_space_group_name_H-M   'P 1'
_cell_length_a   11.08020614
_cell_length_b   11.08020614
_cell_length_c   22.16041228
_cell_angle_alpha   109.47122063
_cell_angle_beta   70.52877937
_cell_angle_gamma   70.52877937
_symmetry_Int_Tables_number   1
_chemical_formula_structural   Li5La3Nb2O12
_chemical_formula_sum   'Li40 La24 Nb16 O96'
_cell_volume   2094.36140309
_cell_formula_units_Z   8
loop_
 _symmetry_equiv_pos_site_id
 _symmetry_equiv_pos_as_xyz
  1  'x, y, z'
loop_
 _atom_type_symbol
 _atom_type_oxidation_number
  Li+  1.0
  La3+  3.0
  Nb5+  5.0
  O2-  -2.0
loop_
 _atom_site_type_symbol
 _atom_site_label
 _atom_site_symmetry_multiplicity
 _atom_site_fract_x
 _atom_site_fract_y
 _atom_site_fract_z
 _atom_site_occupancy
  Li+  Li0  1  0.80480000  0.30480000  0.37500000  1.0
  Li+  Li1  1  0.80368942  0.30327221  0.87612002  1.0
  Li+  Li2  1  0.69520000  0.75000000  0.59760000  1.0
  Li+  Li3  1  0.69520000  0.75000000  0.09760000  1.0
  Li+  Li4  1  0.94520000  0.25000000  0.72260000  1.0
  Li+  Li5  1  0.94382844  0.25185566  0.22093602  1.0
  Li+  Li6  1  0.24040000  0.58680000  0.49140000  1.0
  Li+  Li7  1  0.23756968  0.58779808  0.99085268  1.0
  Li+  Li8  1  0.72320000  0.51720000  0.30200000  1.0
  Li+  Li9  1  0.72320000  0.51720000  0.80200000  1.0
  Li+  Li10  1  0.82720000  0.89600000  0.45660000  1.0
  Li+  Li11  1  0.82720000  0.89600000  0.95660000  1.0
  Li+  Li12  1  0.89600000  0.08680000  0.41360000  1.0
  Li+  Li13  1  0.89600000  0.08680000  0.91360000  1.0
  Li+  Li14  1  0.60400000  0.67280000  0.70660000  1.0
  Li+  Li15  1  0.60400000  0.67280000  0.20660000  1.0
  Li+  Li16  1  0.01985834  0.22651807  0.44898429  1.0
  Li+  Li17  1  0.01720000  0.22320000  0.94800000  1.0
  Li+  Li18  1  0.24040000  0.17280000  0.63840000  1.0
  Li+  Li19  1  0.24040000  0.17280000  0.13840000  1.0
  Li+  Li20  1  0.87500000  0.87500000  0.37500000  1.0
  Li+  Li21  1  0.87500000  0.87500000  0.87500000  1.0
  Li+  Li22  1  0.62500000  0.62500000  0.62500000  1.0
  Li+  Li23  1  0.62482702  0.62653986  0.12716708  1.0
  Li+  Li24  1  0.12751138  0.74530938  0.56293589  1.0
  Li+  Li25  1  0.12500000  0.75000000  0.06250000  1.0
  Li+  Li26  1  0.37500000  0.25000000  0.68750000  1.0
  Li+  Li27  1  0.37500000  0.25000000  0.18750000  1.0
  Li+  Li28  1  0.25000000  0.12500000  0.43750000  1.0
  Li+  Li29  1  0.25000000  0.12500000  0.93750000  1.0
  Li+  Li30  1  0.12500000  0.12500000  0.62500000  1.0
  Li+  Li31  1  0.12500000  0.12500000  0.12500000  1.0
  Li+  Li32  1  0.37161262  0.37338971  0.37350930  1.0
  Li+  Li33  1  0.37409022  0.37509815  0.87427331  1.0
  Li+  Li34  1  0.62500000  0.75000000  0.31250000  1.0
  Li+  Li35  1  0.62500000  0.75000000  0.81250000  1.0
  Li+  Li36  1  0.25000000  0.62500000  0.68750000  1.0
  Li+  Li37  1  0.25000000  0.62500000  0.18750000  1.0
  Li+  Li38  1  0.75110195  0.87472034  0.56101938  1.0
  Li+  Li39  1  0.75000000  0.87500000  0.06250000  1.0
  La3+  La40  1  0.75000000  0.62500000  0.43750000  1.0
  La3+  La41  1  0.75000000  0.62500000  0.93750000  1.0
  La3+  La42  1  0.25000000  0.87500000  0.31250000  1.0
  La3+  La43  1  0.25103317  0.87408537  0.80860754  1.0
  La3+  La44  1  0.12500000  0.62500000  0.37500000  1.0
  La3+  La45  1  0.12500000  0.62500000  0.87500000  1.0
  La3+  La46  1  0.37500000  0.87500000  0.62500000  1.0
  La3+  La47  1  0.37500000  0.87500000  0.12500000  1.0
  La3+  La48  1  0.37500000  0.75000000  0.43750000  1.0
  La3+  La49  1  0.37500000  0.75000000  0.93750000  1.0
  La3+  La50  1  0.12500000  0.25000000  0.31250000  1.0
  La3+  La51  1  0.12500000  0.25000000  0.81250000  1.0
  La3+  La52  1  0.24645872  0.37256653  0.56129203  1.0
  La3+  La53  1  0.25000000  0.37500000  0.06250000  1.0
  La3+  La54  1  0.75000000  0.12500000  0.68750000  1.0
  La3+  La55  1  0.75000000  0.12500000  0.18750000  1.0
  La3+  La56  1  0.87500000  0.37500000  0.62500000  1.0
  La3+  La57  1  0.87500000  0.37500000  0.12500000  1.0
  La3+  La58  1  0.62500000  0.12500000  0.37500000  1.0
  La3+  La59  1  0.62794006  0.12226362  0.87577913  1.0
  La3+  La60  1  0.62315875  0.24968709  0.56346950  1.0
  La3+  La61  1  0.62424091  0.25550658  0.06218992  1.0
  La3+  La62  1  0.87500000  0.75000000  0.68750000  1.0
  La3+  La63  1  0.87500000  0.75000000  0.18750000  1.0
  Nb5+  Nb64  1  0.00000000  0.50000000  0.75000000  1.0
  Nb5+  Nb65  1  0.00000000  0.50000000  0.25000000  1.0
  Nb5+  Nb66  1  0.50000000  0.50000000  0.50000000  1.0
  Nb5+  Nb67  1  0.50000000  0.50000000  0.00000000  1.0
  Nb5+  Nb68  1  0.00000000  0.00000000  0.50000000  1.0
  Nb5+  Nb69  1  0.00000000  0.00000000  0.00000000  1.0
  Nb5+  Nb70  1  0.50000000  0.00000000  0.75000000  1.0
  Nb5+  Nb71  1  0.50000000  0.00000000  0.25000000  1.0
  Nb5+  Nb72  1  0.00000000  0.50000000  0.50000000  1.0
  Nb5+  Nb73  1  0.00000000  0.50000000  0.00000000  1.0
  Nb5+  Nb74  1  0.49843648  0.50341658  0.74657142  1.0
  Nb5+  Nb75  1  0.50000000  0.50000000  0.25000000  1.0
  Nb5+  Nb76  1  0.50000000  0.00000000  0.50000000  1.0
  Nb5+  Nb77  1  0.50192782  0.00209769  0.99756410  1.0
  Nb5+  Nb78  1  0.00000000  0.00000000  0.75000000  1.0
  Nb5+  Nb79  1  0.00001854  0.99673592  0.24914139  1.0
  O2-  O80  1  0.90707000  0.67400000  0.48899500  1.0
  O2-  O81  1  0.90707000  0.67400000  0.98899500  1.0
  O2-  O82  1  0.59293000  0.88506000  0.54053500  1.0
  O2-  O83  1  0.59593982  0.88363872  0.04043853  1.0
  O2-  O84  1  0.30399000  0.61494000  0.26100500  1.0
  O2-  O85  1  0.30347471  0.61514008  0.76475438  1.0
  O2-  O86  1  0.20101066  0.82704211  0.71053248  1.0
  O2-  O87  1  0.19601000  0.82600000  0.20946500  1.0
  O2-  O88  1  0.38312545  0.52225735  0.34965737  1.0
  O2-  O89  1  0.38506000  0.52201000  0.84800500  1.0
  O2-  O90  1  0.17266621  0.42292461  0.40099363  1.0
  O2-  O91  1  0.17400000  0.41893000  0.90199500  1.0
  O2-  O92  1  0.32593972  0.98282117  0.55194614  1.0
  O2-  O93  1  0.32696292  0.97946721  0.04540895  1.0
  O2-  O94  1  0.11494000  0.08107000  0.70353500  1.0
  O2-  O95  1  0.11555603  0.08131665  0.20548366  1.0
  O2-  O96  1  0.58107000  0.80399000  0.41300000  1.0
  O2-  O97  1  0.58107000  0.80399000  0.91300000  1.0
  O2-  O98  1  0.47546073  0.69326979  0.30978311  1.0
  O2-  O99  1  0.47799000  0.69601000  0.80747000  1.0
  O2-  O100  1  0.92085388  0.40805253  0.43805928  1.0
  O2-  O101  1  0.91893000  0.40707000  0.94253000  1.0
  O2-  O102  1  0.02201000  0.09293000  0.33700000  1.0
  O2-  O103  1  0.02201000  0.09293000  0.83700000  1.0
  O2-  O104  1  0.09293000  0.32600000  0.51100500  1.0
  O2-  O105  1  0.09293000  0.32600000  0.01100500  1.0
  O2-  O106  1  0.40707000  0.11494000  0.45946500  1.0
  O2-  O107  1  0.40810511  0.11756304  0.96276732  1.0
  O2-  O108  1  0.69601000  0.38506000  0.73899500  1.0
  O2-  O109  1  0.69601000  0.38506000  0.23899500  1.0
  O2-  O110  1  0.80399000  0.17400000  0.29053500  1.0
  O2-  O111  1  0.80399000  0.17400000  0.79053500  1.0
  O2-  O112  1  0.61494000  0.47799000  0.65199500  1.0
  O2-  O113  1  0.61494000  0.47799000  0.15199500  1.0
  O2-  O114  1  0.82600000  0.58107000  0.59800500  1.0
  O2-  O115  1  0.82600000  0.58107000  0.09800500  1.0
  O2-  O116  1  0.67400000  0.02201000  0.45353500  1.0
  O2-  O117  1  0.67400000  0.02201000  0.95353500  1.0
  O2-  O118  1  0.88579871  0.91905406  0.29700769  1.0
  O2-  O119  1  0.88506000  0.91893000  0.79646500  1.0
  O2-  O120  1  0.41960785  0.19370791  0.58994908  1.0
  O2-  O121  1  0.41902837  0.19915349  0.08650248  1.0
  O2-  O122  1  0.52201000  0.30399000  0.69253000  1.0
  O2-  O123  1  0.52201000  0.30399000  0.19253000  1.0
  O2-  O124  1  0.08107000  0.59293000  0.55747000  1.0
  O2-  O125  1  0.08107000  0.59293000  0.05747000  1.0
  O2-  O126  1  0.97799000  0.90707000  0.66300000  1.0
  O2-  O127  1  0.97527998  0.90640734  0.16098894  1.0
  O2-  O128  1  0.08340646  0.32644112  0.65282797  1.0
  O2-  O129  1  0.08107000  0.32600000  0.15199500  1.0
  O2-  O130  1  0.97799000  0.11494000  0.59800500  1.0
  O2-  O131  1  0.97799000  0.11494000  0.09800500  1.0
  O2-  O132  1  0.41893000  0.38506000  0.45353500  1.0
  O2-  O133  1  0.41893000  0.38506000  0.95353500  1.0
  O2-  O134  1  0.52201000  0.17400000  0.29646500  1.0
  O2-  O135  1  0.52201000  0.17400000  0.79646500  1.0
  O2-  O136  1  0.41087686  0.47966081  0.58854232  1.0
  O2-  O137  1  0.39895839  0.48235697  0.08592479  1.0
  O2-  O138  1  0.09293000  0.58107000  0.69253000  1.0
  O2-  O139  1  0.09047125  0.57936884  0.18774846  1.0
  O2-  O140  1  0.80290763  0.02065205  0.55572233  1.0
  O2-  O141  1  0.80399000  0.02201000  0.05747000  1.0
  O2-  O142  1  0.69601000  0.91893000  0.66300000  1.0
  O2-  O143  1  0.69601000  0.91893000  0.16300000  1.0
  O2-  O144  1  0.88506000  0.19601000  0.51100500  1.0
  O2-  O145  1  0.88506000  0.19601000  0.01100500  1.0
  O2-  O146  1  0.67400000  0.30399000  0.45946500  1.0
  O2-  O147  1  0.67648859  0.30061181  0.96051698  1.0
  O2-  O148  1  0.82600000  0.59293000  0.73899500  1.0
  O2-  O149  1  0.82718257  0.58869220  0.24087395  1.0
  O2-  O150  1  0.61494000  0.90707000  0.29053500  1.0
  O2-  O151  1  0.61494000  0.90707000  0.79053500  1.0
  O2-  O152  1  0.91798062  0.67297430  0.34677731  1.0
  O2-  O153  1  0.91893000  0.67400000  0.84800500  1.0
  O2-  O154  1  0.02201000  0.88506000  0.40199500  1.0
  O2-  O155  1  0.02099758  0.88320276  0.90401614  1.0
  O2-  O156  1  0.58107000  0.61494000  0.54646500  1.0
  O2-  O157  1  0.58107000  0.61494000  0.04646500  1.0
  O2-  O158  1  0.47799000  0.82600000  0.70353500  1.0
  O2-  O159  1  0.47799000  0.82600000  0.20353500  1.0
  O2-  O160  1  0.59293000  0.52201000  0.41300000  1.0
  O2-  O161  1  0.59239174  0.52138756  0.91346992  1.0
  O2-  O162  1  0.90707000  0.41893000  0.30747000  1.0
  O2-  O163  1  0.90707000  0.41893000  0.80747000  1.0
  O2-  O164  1  0.19601000  0.97799000  0.44253000  1.0
  O2-  O165  1  0.19601000  0.97799000  0.94253000  1.0
  O2-  O166  1  0.30124187  0.08233618  0.34033662  1.0
  O2-  O167  1  0.30399000  0.08107000  0.83700000  1.0
  O2-  O168  1  0.11494000  0.80399000  0.48899500  1.0
  O2-  O169  1  0.11494000  0.80399000  0.98899500  1.0
  O2-  O170  1  0.32600000  0.69601000  0.54053500  1.0
  O2-  O171  1  0.32600000  0.69601000  0.04053500  1.0
  O2-  O172  1  0.17477072  0.40770795  0.25743752  1.0
  O2-  O173  1  0.17400000  0.40707000  0.76100500  1.0
  O2-  O174  1  0.38506000  0.09293000  0.70946500  1.0
  O2-  O175  1  0.38506000  0.09293000  0.20946500  1.0
