# generated using pymatgen
data_Li5La3Nb2O12
_symmetry_space_group_name_H-M   'P 1'
_cell_length_a   22.13463660
_cell_length_b   11.06731830
_cell_length_c   11.06731830
_cell_angle_alpha   70.52877937
_cell_angle_beta   70.52877937
_cell_angle_gamma   109.47122063
_symmetry_Int_Tables_number   1
_chemical_formula_structural   Li5La3Nb2O12
_chemical_formula_sum   'Li40 La24 Nb16 O96'
_cell_volume   2087.06178847
_cell_formula_units_Z   8
loop_
 _symmetry_equiv_pos_site_id
 _symmetry_equiv_pos_as_xyz
  1  'x, y, z'
loop_
 _atom_type_symbol
 _atom_type_oxidation_number
  Li+  1.0
  La3+  3.0
  Nb5+  5.0
  O2-  -2.0
loop_
 _atom_site_type_symbol
 _atom_site_label
 _atom_site_symmetry_multiplicity
 _atom_site_fract_x
 _atom_site_fract_y
 _atom_site_fract_z
 _atom_site_occupancy
  Li+  Li0  1  0.62500000  0.86186667  0.69520000  1.0
  Li+  Li1  1  0.12500000  0.86186667  0.69520000  1.0
  Li+  Li2  1  0.84760000  0.97146667  0.25000000  1.0
  Li+  Li3  1  0.34760000  0.97146667  0.25000000  1.0
  Li+  Li4  1  0.97260000  0.72146667  0.75000000  1.0
  Li+  Li5  1  0.47260000  0.72146667  0.75000000  1.0
  Li+  Li6  1  0.74140000  0.42626667  0.41320000  1.0
  Li+  Li7  1  0.24140000  0.42626667  0.41320000  1.0
  Li+  Li8  1  0.55200000  0.94346667  0.48280000  1.0
  Li+  Li9  1  0.05200000  0.94346667  0.48280000  1.0
  Li+  Li10  1  0.70660000  0.83946667  0.10400000  1.0
  Li+  Li11  1  0.20660000  0.83946667  0.10400000  1.0
  Li+  Li12  1  0.66360000  0.77066667  0.91320000  1.0
  Li+  Li13  1  0.16360000  0.77066667  0.91320000  1.0
  Li+  Li14  1  0.95660000  0.06266667  0.32720000  1.0
  Li+  Li15  1  0.45660000  0.06266667  0.32720000  1.0
  Li+  Li16  1  0.69800000  0.64946667  0.77680000  1.0
  Li+  Li17  1  0.19800000  0.64946667  0.77680000  1.0
  Li+  Li18  1  0.88840000  0.42626667  0.82720000  1.0
  Li+  Li19  1  0.38840000  0.42626667  0.82720000  1.0
  Li+  Li20  1  0.62500000  0.79166667  0.12500000  1.0
  Li+  Li21  1  0.12500000  0.79166667  0.12500000  1.0
  Li+  Li22  1  0.87500000  0.04166667  0.37500000  1.0
  Li+  Li23  1  0.37500000  0.04166667  0.37500000  1.0
  Li+  Li24  1  0.81250000  0.54166667  0.25000000  1.0
  Li+  Li25  1  0.31250000  0.54166667  0.25000000  1.0
  Li+  Li26  1  0.93750000  0.29166667  0.75000000  1.0
  Li+  Li27  1  0.43750000  0.29166667  0.75000000  1.0
  Li+  Li28  1  0.68750000  0.41666667  0.87500000  1.0
  Li+  Li29  1  0.18750000  0.41666667  0.87500000  1.0
  Li+  Li30  1  0.87500000  0.54166667  0.87500000  1.0
  Li+  Li31  1  0.37500000  0.54166667  0.87500000  1.0
  Li+  Li32  1  0.62500000  0.29166667  0.62500000  1.0
  Li+  Li33  1  0.12500000  0.29166667  0.62500000  1.0
  Li+  Li34  1  0.56250000  0.04166667  0.25000000  1.0
  Li+  Li35  1  0.06250000  0.04166667  0.25000000  1.0
  Li+  Li36  1  0.93750000  0.41666667  0.37500000  1.0
  Li+  Li37  1  0.43750000  0.41666667  0.37500000  1.0
  Li+  Li38  1  0.81250000  0.91666667  0.12500000  1.0
  Li+  Li39  1  0.31250000  0.91666667  0.12500000  1.0
  La3+  La40  1  0.68750000  0.91666667  0.37500000  1.0
  La3+  La41  1  0.18750000  0.91666667  0.37500000  1.0
  La3+  La42  1  0.56250000  0.41666667  0.12500000  1.0
  La3+  La43  1  0.06250000  0.41666667  0.12500000  1.0
  La3+  La44  1  0.62500000  0.54166667  0.37500000  1.0
  La3+  La45  1  0.12500000  0.54166667  0.37500000  1.0
  La3+  La46  1  0.87500000  0.29166667  0.12500000  1.0
  La3+  La47  1  0.37500000  0.29166667  0.12500000  1.0
  La3+  La48  1  0.68750000  0.29166667  0.25000000  1.0
  La3+  La49  1  0.18750000  0.29166667  0.25000000  1.0
  La3+  La50  1  0.56250000  0.54166667  0.75000000  1.0
  La3+  La51  1  0.06250000  0.54166667  0.75000000  1.0
  La3+  La52  1  0.81250000  0.41666667  0.62500000  1.0
  La3+  La53  1  0.31250000  0.41666667  0.62500000  1.0
  La3+  La54  1  0.93750000  0.91666667  0.87500000  1.0
  La3+  La55  1  0.43750000  0.91666667  0.87500000  1.0
  La3+  La56  1  0.87500000  0.79166667  0.62500000  1.0
  La3+  La57  1  0.37500000  0.79166667  0.62500000  1.0
  La3+  La58  1  0.62500000  0.04166667  0.87500000  1.0
  La3+  La59  1  0.12500000  0.04166667  0.87500000  1.0
  La3+  La60  1  0.81250000  0.04166667  0.75000000  1.0
  La3+  La61  1  0.31250000  0.04166667  0.75000000  1.0
  La3+  La62  1  0.93750000  0.79166667  0.25000000  1.0
  La3+  La63  1  0.43750000  0.79166667  0.25000000  1.0
  Nb5+  Nb64  1  0.00000000  0.66666667  0.50000000  1.0
  Nb5+  Nb65  1  0.50000000  0.66666667  0.50000000  1.0
  Nb5+  Nb66  1  0.75000000  0.16666667  0.50000000  1.0
  Nb5+  Nb67  1  0.25000000  0.16666667  0.50000000  1.0
  Nb5+  Nb68  1  0.75000000  0.66666667  0.00000000  1.0
  Nb5+  Nb69  1  0.25000000  0.66666667  0.00000000  1.0
  Nb5+  Nb70  1  0.00000000  0.16666667  0.00000000  1.0
  Nb5+  Nb71  1  0.50000000  0.16666667  0.00000000  1.0
  Nb5+  Nb72  1  0.75000000  0.66666667  0.50000000  1.0
  Nb5+  Nb73  1  0.25000000  0.66666667  0.50000000  1.0
  Nb5+  Nb74  1  0.00000000  0.16666667  0.50000000  1.0
  Nb5+  Nb75  1  0.50000000  0.16666667  0.50000000  1.0
  Nb5+  Nb76  1  0.75000000  0.16666667  0.00000000  1.0
  Nb5+  Nb77  1  0.25000000  0.16666667  0.00000000  1.0
  Nb5+  Nb78  1  0.00000000  0.66666667  0.00000000  1.0
  Nb5+  Nb79  1  0.50000000  0.66666667  0.00000000  1.0
  O2-  O80  1  0.73899500  0.75959667  0.32600000  1.0
  O2-  O81  1  0.23899500  0.75959667  0.32600000  1.0
  O2-  O82  1  0.79053500  0.07373667  0.11494000  1.0
  O2-  O83  1  0.29053500  0.07373667  0.11494000  1.0
  O2-  O84  1  0.51100500  0.36267667  0.38506000  1.0
  O2-  O85  1  0.01100500  0.36267667  0.38506000  1.0
  O2-  O86  1  0.95946500  0.47065667  0.17400000  1.0
  O2-  O87  1  0.45946500  0.47065667  0.17400000  1.0
  O2-  O88  1  0.59800500  0.28160667  0.47799000  1.0
  O2-  O89  1  0.09800500  0.28160667  0.47799000  1.0
  O2-  O90  1  0.65199500  0.49266667  0.58107000  1.0
  O2-  O91  1  0.15199500  0.49266667  0.58107000  1.0
  O2-  O92  1  0.79646500  0.34066667  0.02201000  1.0
  O2-  O93  1  0.29646500  0.34066667  0.02201000  1.0
  O2-  O94  1  0.95353500  0.55172667  0.91893000  1.0
  O2-  O95  1  0.45353500  0.55172667  0.91893000  1.0
  O2-  O96  1  0.66300000  0.08559667  0.19601000  1.0
  O2-  O97  1  0.16300000  0.08559667  0.19601000  1.0
  O2-  O98  1  0.55747000  0.18867667  0.30399000  1.0
  O2-  O99  1  0.05747000  0.18867667  0.30399000  1.0
  O2-  O100  1  0.69253000  0.74773667  0.59293000  1.0
  O2-  O101  1  0.19253000  0.74773667  0.59293000  1.0
  O2-  O102  1  0.58700000  0.64465667  0.90707000  1.0
  O2-  O103  1  0.08700000  0.64465667  0.90707000  1.0
  O2-  O104  1  0.76100500  0.57373667  0.67400000  1.0
  O2-  O105  1  0.26100500  0.57373667  0.67400000  1.0
  O2-  O106  1  0.70946500  0.25959667  0.88506000  1.0
  O2-  O107  1  0.20946500  0.25959667  0.88506000  1.0
  O2-  O108  1  0.98899500  0.97065667  0.61494000  1.0
  O2-  O109  1  0.48899500  0.97065667  0.61494000  1.0
  O2-  O110  1  0.54053500  0.86267667  0.82600000  1.0
  O2-  O111  1  0.04053500  0.86267667  0.82600000  1.0
  O2-  O112  1  0.90199500  0.05172667  0.52201000  1.0
  O2-  O113  1  0.40199500  0.05172667  0.52201000  1.0
  O2-  O114  1  0.84800500  0.84066667  0.41893000  1.0
  O2-  O115  1  0.34800500  0.84066667  0.41893000  1.0
  O2-  O116  1  0.70353500  0.99266667  0.97799000  1.0
  O2-  O117  1  0.20353500  0.99266667  0.97799000  1.0
  O2-  O118  1  0.54646500  0.78160667  0.08107000  1.0
  O2-  O119  1  0.04646500  0.78160667  0.08107000  1.0
  O2-  O120  1  0.83700000  0.24773667  0.80399000  1.0
  O2-  O121  1  0.33700000  0.24773667  0.80399000  1.0
  O2-  O122  1  0.94253000  0.14465667  0.69601000  1.0
  O2-  O123  1  0.44253000  0.14465667  0.69601000  1.0
  O2-  O124  1  0.80747000  0.58559667  0.40707000  1.0
  O2-  O125  1  0.30747000  0.58559667  0.40707000  1.0
  O2-  O126  1  0.91300000  0.68867667  0.09293000  1.0
  O2-  O127  1  0.41300000  0.68867667  0.09293000  1.0
  O2-  O128  1  0.90199500  0.58559667  0.67400000  1.0
  O2-  O129  1  0.40199500  0.58559667  0.67400000  1.0
  O2-  O130  1  0.84800500  0.68867667  0.88506000  1.0
  O2-  O131  1  0.34800500  0.68867667  0.88506000  1.0
  O2-  O132  1  0.70353500  0.24773667  0.61494000  1.0
  O2-  O133  1  0.20353500  0.24773667  0.61494000  1.0
  O2-  O134  1  0.54646500  0.14465667  0.82600000  1.0
  O2-  O135  1  0.04646500  0.14465667  0.82600000  1.0
  O2-  O136  1  0.83700000  0.25959667  0.52201000  1.0
  O2-  O137  1  0.33700000  0.25959667  0.52201000  1.0
  O2-  O138  1  0.94253000  0.57373667  0.41893000  1.0
  O2-  O139  1  0.44253000  0.57373667  0.41893000  1.0
  O2-  O140  1  0.80747000  0.86267667  0.97799000  1.0
  O2-  O141  1  0.30747000  0.86267667  0.97799000  1.0
  O2-  O142  1  0.91300000  0.97065667  0.08107000  1.0
  O2-  O143  1  0.41300000  0.97065667  0.08107000  1.0
  O2-  O144  1  0.76100500  0.78160667  0.80399000  1.0
  O2-  O145  1  0.26100500  0.78160667  0.80399000  1.0
  O2-  O146  1  0.70946500  0.99266667  0.69601000  1.0
  O2-  O147  1  0.20946500  0.99266667  0.69601000  1.0
  O2-  O148  1  0.98899500  0.84066667  0.40707000  1.0
  O2-  O149  1  0.48899500  0.84066667  0.40707000  1.0
  O2-  O150  1  0.54053500  0.05172667  0.09293000  1.0
  O2-  O151  1  0.04053500  0.05172667  0.09293000  1.0
  O2-  O152  1  0.59800500  0.74773667  0.32600000  1.0
  O2-  O153  1  0.09800500  0.74773667  0.32600000  1.0
  O2-  O154  1  0.65199500  0.64465667  0.11494000  1.0
  O2-  O155  1  0.15199500  0.64465667  0.11494000  1.0
  O2-  O156  1  0.79646500  0.08559667  0.38506000  1.0
  O2-  O157  1  0.29646500  0.08559667  0.38506000  1.0
  O2-  O158  1  0.95353500  0.18867667  0.17400000  1.0
  O2-  O159  1  0.45353500  0.18867667  0.17400000  1.0
  O2-  O160  1  0.66300000  0.07373667  0.47799000  1.0
  O2-  O161  1  0.16300000  0.07373667  0.47799000  1.0
  O2-  O162  1  0.55747000  0.75959667  0.58107000  1.0
  O2-  O163  1  0.05747000  0.75959667  0.58107000  1.0
  O2-  O164  1  0.69253000  0.47065667  0.02201000  1.0
  O2-  O165  1  0.19253000  0.47065667  0.02201000  1.0
  O2-  O166  1  0.58700000  0.36267667  0.91893000  1.0
  O2-  O167  1  0.08700000  0.36267667  0.91893000  1.0
  O2-  O168  1  0.73899500  0.55172667  0.19601000  1.0
  O2-  O169  1  0.23899500  0.55172667  0.19601000  1.0
  O2-  O170  1  0.79053500  0.34066667  0.30399000  1.0
  O2-  O171  1  0.29053500  0.34066667  0.30399000  1.0
  O2-  O172  1  0.51100500  0.49266667  0.59293000  1.0
  O2-  O173  1  0.01100500  0.49266667  0.59293000  1.0
  O2-  O174  1  0.95946500  0.28160667  0.90707000  1.0
  O2-  O175  1  0.45946500  0.28160667  0.90707000  1.0
