# generated using pymatgen
data_Li5La3Nb2O12
_symmetry_space_group_name_H-M   'P 1'
_cell_length_a   11.08020614
_cell_length_b   22.16041228
_cell_length_c   11.08020614
_cell_angle_alpha   109.47122063
_cell_angle_beta   109.47122063
_cell_angle_gamma   109.47122063
_symmetry_Int_Tables_number   1
_chemical_formula_structural   Li5La3Nb2O12
_chemical_formula_sum   'Li40 La24 Nb16 O96'
_cell_volume   2094.36140309
_cell_formula_units_Z   8
loop_
 _symmetry_equiv_pos_site_id
 _symmetry_equiv_pos_as_xyz
  1  'x, y, z'
loop_
 _atom_type_symbol
 _atom_type_oxidation_number
  Li+  1.0
  La3+  3.0
  Nb5+  5.0
  O2-  -2.0
loop_
 _atom_site_type_symbol
 _atom_site_label
 _atom_site_symmetry_multiplicity
 _atom_site_fract_x
 _atom_site_fract_y
 _atom_site_fract_z
 _atom_site_occupancy
  Li+  Li0  1  0.80480000  0.37500000  0.69520000  1.0
  Li+  Li0  1  0.80480000  0.87500000  0.69520000  1.0
  Li+  Li1  1  0.69520000  0.15240000  0.25000000  1.0
  Li+  Li1  1  0.69520000  0.65240000  0.25000000  1.0
  Li+  Li2  1  0.94520000  0.02740000  0.75000000  1.0
  Li+  Li2  1  0.94520000  0.52740000  0.75000000  1.0
  Li+  Li3  1  0.24040000  0.25860000  0.41320000  1.0
  Li+  Li3  1  0.24040000  0.75860000  0.41320000  1.0
  Li+  Li4  1  0.72320000  0.44800000  0.48280000  1.0
  Li+  Li4  1  0.72320000  0.94800000  0.48280000  1.0
  Li+  Li5  1  0.82720000  0.29340000  0.10400000  1.0
  Li+  Li5  1  0.82720000  0.79340000  0.10400000  1.0
  Li+  Li6  1  0.89600000  0.33640000  0.91320000  1.0
  Li+  Li6  1  0.89600000  0.83640000  0.91320000  1.0
  Li+  Li7  1  0.60400000  0.04340000  0.32720000  1.0
  Li+  Li7  1  0.60400000  0.54340000  0.32720000  1.0
  Li+  Li8  1  0.01720000  0.30200000  0.77680000  1.0
  Li+  Li8  1  0.01720000  0.80200000  0.77680000  1.0
  Li+  Li9  1  0.24040000  0.11160000  0.82720000  1.0
  Li+  Li9  1  0.24040000  0.61160000  0.82720000  1.0
  Li+  Li10  1  0.87500000  0.37500000  0.12500000  1.0
  Li+  Li10  1  0.87500000  0.87500000  0.12500000  1.0
  Li+  Li11  1  0.62500000  0.12500000  0.37500000  1.0
  Li+  Li11  1  0.62500000  0.62500000  0.37500000  1.0
  Li+  Li12  1  0.12500000  0.18750000  0.25000000  1.0
  Li+  Li12  1  0.12500000  0.68750000  0.25000000  1.0
  Li+  Li13  1  0.37500000  0.06250000  0.75000000  1.0
  Li+  Li13  1  0.37500000  0.56250000  0.75000000  1.0
  Li+  Li14  1  0.25000000  0.31250000  0.87500000  1.0
  Li+  Li14  1  0.25000000  0.81250000  0.87500000  1.0
  Li+  Li15  1  0.12500000  0.12500000  0.87500000  1.0
  Li+  Li15  1  0.12500000  0.62500000  0.87500000  1.0
  Li+  Li16  1  0.37500000  0.37500000  0.62500000  1.0
  Li+  Li16  1  0.37500000  0.87500000  0.62500000  1.0
  Li+  Li17  1  0.62500000  0.43750000  0.25000000  1.0
  Li+  Li17  1  0.62500000  0.93750000  0.25000000  1.0
  Li+  Li18  1  0.25000000  0.06250000  0.37500000  1.0
  Li+  Li18  1  0.25000000  0.56250000  0.37500000  1.0
  Li+  Li19  1  0.75000000  0.18750000  0.12500000  1.0
  Li+  Li19  1  0.75000000  0.68750000  0.12500000  1.0
  La3+  La1  1  0.75000000  0.31250000  0.37500000  1.0
  La3+  La1  1  0.75000000  0.81250000  0.37500000  1.0
  La3+  La1  1  0.25000000  0.43750000  0.12500000  1.0
  La3+  La1  1  0.25000000  0.93750000  0.12500000  1.0
  La3+  La1  1  0.12500000  0.37500000  0.37500000  1.0
  La3+  La1  1  0.12500000  0.87500000  0.37500000  1.0
  La3+  La1  1  0.37500000  0.12500000  0.12500000  1.0
  La3+  La1  1  0.37500000  0.62500000  0.12500000  1.0
  La3+  La1  1  0.37500000  0.31250000  0.25000000  1.0
  La3+  La1  1  0.37500000  0.81250000  0.25000000  1.0
  La3+  La1  1  0.12500000  0.43750000  0.75000000  1.0
  La3+  La1  1  0.12500000  0.93750000  0.75000000  1.0
  La3+  La1  1  0.25000000  0.18750000  0.62500000  1.0
  La3+  La1  1  0.25000000  0.68750000  0.62500000  1.0
  La3+  La1  1  0.75000000  0.06250000  0.87500000  1.0
  La3+  La1  1  0.75000000  0.56250000  0.87500000  1.0
  La3+  La1  1  0.87500000  0.12500000  0.62500000  1.0
  La3+  La1  1  0.87500000  0.62500000  0.62500000  1.0
  La3+  La1  1  0.62500000  0.37500000  0.87500000  1.0
  La3+  La1  1  0.62500000  0.87500000  0.87500000  1.0
  La3+  La1  1  0.62500000  0.18750000  0.75000000  1.0
  La3+  La1  1  0.62500000  0.68750000  0.75000000  1.0
  La3+  La1  1  0.87500000  0.06250000  0.25000000  1.0
  La3+  La1  1  0.87500000  0.56250000  0.25000000  1.0
  Nb5+  Nb1  1  0.00000000  0.00000000  0.50000000  1.0
  Nb5+  Nb1  1  0.00000000  0.50000000  0.50000000  1.0
  Nb5+  Nb1  1  0.50000000  0.25000000  0.50000000  1.0
  Nb5+  Nb1  1  0.50000000  0.75000000  0.50000000  1.0
  Nb5+  Nb1  1  0.00000000  0.25000000  0.00000000  1.0
  Nb5+  Nb1  1  0.00000000  0.75000000  1.00000000  1.0
  Nb5+  Nb1  1  0.50000000  0.00000000  0.00000000  1.0
  Nb5+  Nb1  1  0.50000000  0.50000000  1.00000000  1.0
  Nb5+  Nb1  1  0.00000000  0.25000000  0.50000000  1.0
  Nb5+  Nb1  1  0.00000000  0.75000000  0.50000000  1.0
  Nb5+  Nb1  1  0.50000000  0.00000000  0.50000000  1.0
  Nb5+  Nb1  1  0.50000000  0.50000000  0.50000000  1.0
  Nb5+  Nb1  1  0.50000000  0.25000000  0.00000000  1.0
  Nb5+  Nb1  1  0.50000000  0.75000000  1.00000000  1.0
  Nb5+  Nb1  1  0.00000000  0.00000000  0.00000000  1.0
  Nb5+  Nb1  1  0.00000000  0.50000000  0.00000000  1.0
  O2-  O1  1  0.90707000  0.26100500  0.32600000  1.0
  O2-  O1  1  0.90707000  0.76100500  0.32600000  1.0
  O2-  O1  1  0.59293000  0.20946500  0.11494000  1.0
  O2-  O1  1  0.59293000  0.70946500  0.11494000  1.0
  O2-  O1  1  0.30399000  0.48899500  0.38506000  1.0
  O2-  O1  1  0.30399000  0.98899500  0.38506000  1.0
  O2-  O1  1  0.19601000  0.04053500  0.17400000  1.0
  O2-  O1  1  0.19601000  0.54053500  0.17400000  1.0
  O2-  O1  1  0.38506000  0.40199500  0.47799000  1.0
  O2-  O1  1  0.38506000  0.90199500  0.47799000  1.0
  O2-  O1  1  0.17400000  0.34800500  0.58107000  1.0
  O2-  O1  1  0.17400000  0.84800500  0.58107000  1.0
  O2-  O1  1  0.32600000  0.20353500  0.02201000  1.0
  O2-  O1  1  0.32600000  0.70353500  0.02201000  1.0
  O2-  O1  1  0.11494000  0.04646500  0.91893000  1.0
  O2-  O1  1  0.11494000  0.54646500  0.91893000  1.0
  O2-  O1  1  0.58107000  0.33700000  0.19601000  1.0
  O2-  O1  1  0.58107000  0.83700000  0.19601000  1.0
  O2-  O1  1  0.47799000  0.44253000  0.30399000  1.0
  O2-  O1  1  0.47799000  0.94253000  0.30399000  1.0
  O2-  O1  1  0.91893000  0.30747000  0.59293000  1.0
  O2-  O1  1  0.91893000  0.80747000  0.59293000  1.0
  O2-  O1  1  0.02201000  0.41300000  0.90707000  1.0
  O2-  O1  1  0.02201000  0.91300000  0.90707000  1.0
  O2-  O1  1  0.09293000  0.23899500  0.67400000  1.0
  O2-  O1  1  0.09293000  0.73899500  0.67400000  1.0
  O2-  O1  1  0.40707000  0.29053500  0.88506000  1.0
  O2-  O1  1  0.40707000  0.79053500  0.88506000  1.0
  O2-  O1  1  0.69601000  0.01100500  0.61494000  1.0
  O2-  O1  1  0.69601000  0.51100500  0.61494000  1.0
  O2-  O1  1  0.80399000  0.45946500  0.82600000  1.0
  O2-  O1  1  0.80399000  0.95946500  0.82600000  1.0
  O2-  O1  1  0.61494000  0.09800500  0.52201000  1.0
  O2-  O1  1  0.61494000  0.59800500  0.52201000  1.0
  O2-  O1  1  0.82600000  0.15199500  0.41893000  1.0
  O2-  O1  1  0.82600000  0.65199500  0.41893000  1.0
  O2-  O1  1  0.67400000  0.29646500  0.97799000  1.0
  O2-  O1  1  0.67400000  0.79646500  0.97799000  1.0
  O2-  O1  1  0.88506000  0.45353500  0.08107000  1.0
  O2-  O1  1  0.88506000  0.95353500  0.08107000  1.0
  O2-  O1  1  0.41893000  0.16300000  0.80399000  1.0
  O2-  O1  1  0.41893000  0.66300000  0.80399000  1.0
  O2-  O1  1  0.52201000  0.05747000  0.69601000  1.0
  O2-  O1  1  0.52201000  0.55747000  0.69601000  1.0
  O2-  O1  1  0.08107000  0.19253000  0.40707000  1.0
  O2-  O1  1  0.08107000  0.69253000  0.40707000  1.0
  O2-  O1  1  0.97799000  0.08700000  0.09293000  1.0
  O2-  O1  1  0.97799000  0.58700000  0.09293000  1.0
  O2-  O1  1  0.08107000  0.09800500  0.67400000  1.0
  O2-  O1  1  0.08107000  0.59800500  0.67400000  1.0
  O2-  O1  1  0.97799000  0.15199500  0.88506000  1.0
  O2-  O1  1  0.97799000  0.65199500  0.88506000  1.0
  O2-  O1  1  0.41893000  0.29646500  0.61494000  1.0
  O2-  O1  1  0.41893000  0.79646500  0.61494000  1.0
  O2-  O1  1  0.52201000  0.45353500  0.82600000  1.0
  O2-  O1  1  0.52201000  0.95353500  0.82600000  1.0
  O2-  O1  1  0.40707000  0.16300000  0.52201000  1.0
  O2-  O1  1  0.40707000  0.66300000  0.52201000  1.0
  O2-  O1  1  0.09293000  0.05747000  0.41893000  1.0
  O2-  O1  1  0.09293000  0.55747000  0.41893000  1.0
  O2-  O1  1  0.80399000  0.19253000  0.97799000  1.0
  O2-  O1  1  0.80399000  0.69253000  0.97799000  1.0
  O2-  O1  1  0.69601000  0.08700000  0.08107000  1.0
  O2-  O1  1  0.69601000  0.58700000  0.08107000  1.0
  O2-  O1  1  0.88506000  0.23899500  0.80399000  1.0
  O2-  O1  1  0.88506000  0.73899500  0.80399000  1.0
  O2-  O1  1  0.67400000  0.29053500  0.69601000  1.0
  O2-  O1  1  0.67400000  0.79053500  0.69601000  1.0
  O2-  O1  1  0.82600000  0.01100500  0.40707000  1.0
  O2-  O1  1  0.82600000  0.51100500  0.40707000  1.0
  O2-  O1  1  0.61494000  0.45946500  0.09293000  1.0
  O2-  O1  1  0.61494000  0.95946500  0.09293000  1.0
  O2-  O1  1  0.91893000  0.40199500  0.32600000  1.0
  O2-  O1  1  0.91893000  0.90199500  0.32600000  1.0
  O2-  O1  1  0.02201000  0.34800500  0.11494000  1.0
  O2-  O1  1  0.02201000  0.84800500  0.11494000  1.0
  O2-  O1  1  0.58107000  0.20353500  0.38506000  1.0
  O2-  O1  1  0.58107000  0.70353500  0.38506000  1.0
  O2-  O1  1  0.47799000  0.04646500  0.17400000  1.0
  O2-  O1  1  0.47799000  0.54646500  0.17400000  1.0
  O2-  O1  1  0.59293000  0.33700000  0.47799000  1.0
  O2-  O1  1  0.59293000  0.83700000  0.47799000  1.0
  O2-  O1  1  0.90707000  0.44253000  0.58107000  1.0
  O2-  O1  1  0.90707000  0.94253000  0.58107000  1.0
  O2-  O1  1  0.19601000  0.30747000  0.02201000  1.0
  O2-  O1  1  0.19601000  0.80747000  0.02201000  1.0
  O2-  O1  1  0.30399000  0.41300000  0.91893000  1.0
  O2-  O1  1  0.30399000  0.91300000  0.91893000  1.0
  O2-  O1  1  0.11494000  0.26100500  0.19601000  1.0
  O2-  O1  1  0.11494000  0.76100500  0.19601000  1.0
  O2-  O1  1  0.32600000  0.20946500  0.30399000  1.0
  O2-  O1  1  0.32600000  0.70946500  0.30399000  1.0
  O2-  O1  1  0.17400000  0.48899500  0.59293000  1.0
  O2-  O1  1  0.17400000  0.98899500  0.59293000  1.0
  O2-  O1  1  0.38506000  0.04053500  0.90707000  1.0
  O2-  O1  1  0.38506000  0.54053500  0.90707000  1.0
