# generated using pymatgen
data_Li5Ti7Sn3(PO4)15
_symmetry_space_group_name_H-M   'P 1'
_cell_length_a   8.54910000
_cell_length_b   42.74550000
_cell_length_c   8.57807392
_cell_angle_alpha   60.11166974
_cell_angle_beta   60.11166974
_cell_angle_gamma   60.00000000
_symmetry_Int_Tables_number   1
_chemical_formula_structural   Li5Ti7Sn3(PO4)15
_chemical_formula_sum   'Li10 Ti14 Sn6 P30 O120'
_cell_volume   2220.32509178
_cell_formula_units_Z   2
loop_
 _symmetry_equiv_pos_site_id
 _symmetry_equiv_pos_as_xyz
  1  'x, y, z'
loop_
 _atom_type_symbol
 _atom_type_oxidation_number
  Li+  1.0
  Ti4+  4.0
  Sn4+  4.0
  P5+  5.0
  O2-  -2.0
loop_
 _atom_site_type_symbol
 _atom_site_label
 _atom_site_symmetry_multiplicity
 _atom_site_fract_x
 _atom_site_fract_y
 _atom_site_fract_z
 _atom_site_occupancy
  Li+  Li1  1  0.50000000  0.10000000  0.50000000  1.0
  Li+  Li1  1  0.50000000  0.30000000  0.50000000  1.0
  Li+  Li1  1  0.50000000  0.50000000  0.50000000  1.0
  Li+  Li1  1  0.50000000  0.70000000  0.50000000  1.0
  Li+  Li1  1  0.50000000  0.90000000  0.50000000  1.0
  Li+  Li1  1  0.00000000  0.00000000  0.00000000  1.0
  Li+  Li1  1  0.00000000  0.20000000  0.00000000  1.0
  Li+  Li1  1  0.00000000  0.40000000  0.00000000  1.0
  Li+  Li1  1  0.00000000  0.60000000  0.00000000  1.0
  Li+  Li1  1  0.00000000  0.80000000  0.00000000  1.0
  Ti4+  Ti10  1  0.35430000  0.07086000  0.93710000  1.0
  Ti4+  Ti11  1  0.35430000  0.47086000  0.93710000  1.0
  Ti4+  Ti12  1  0.35430000  0.67086000  0.93710000  1.0
  Ti4+  Ti13  1  0.35430000  0.87086000  0.93710000  1.0
  Ti4+  Ti14  1  0.85430000  0.17086000  0.43710000  1.0
  Ti4+  Ti15  1  0.85430000  0.57086000  0.43710000  1.0
  Ti4+  Ti16  1  0.85430000  0.77086000  0.43710000  1.0
  Ti4+  Ti17  1  0.85430000  0.97086000  0.43710000  1.0
  Ti4+  Ti18  1  0.64570000  0.12914000  0.06290000  1.0
  Ti4+  Ti19  1  0.64570000  0.72914000  0.06290000  1.0
  Ti4+  Ti20  1  0.64570000  0.92914000  0.06290000  1.0
  Ti4+  Ti21  1  0.14570000  0.22914000  0.56290000  1.0
  Ti4+  Ti22  1  0.14570000  0.42914000  0.56290000  1.0
  Ti4+  Ti23  1  0.14570000  0.82914000  0.56290000  1.0
  Sn4+  Sn24  1  0.35430000  0.27086000  0.93710000  1.0
  Sn4+  Sn25  1  0.85430000  0.37086000  0.43710000  1.0
  Sn4+  Sn26  1  0.64570000  0.32914000  0.06290000  1.0
  Sn4+  Sn27  1  0.64570000  0.52914000  0.06290000  1.0
  Sn4+  Sn28  1  0.14570000  0.02914000  0.56290000  1.0
  Sn4+  Sn29  1  0.14570000  0.62914000  0.56290000  1.0
  P5+  P1  1  0.25000000  0.19208000  0.25000000  1.0
  P5+  P1  1  0.25000000  0.39208000  0.25000000  1.0
  P5+  P1  1  0.25000000  0.59208000  0.25000000  1.0
  P5+  P1  1  0.25000000  0.79208000  0.25000000  1.0
  P5+  P1  1  0.25000000  0.99208000  0.25000000  1.0
  P5+  P1  1  0.53960000  0.05000000  0.25000000  1.0
  P5+  P1  1  0.53960000  0.25000000  0.25000000  1.0
  P5+  P1  1  0.53960000  0.45000000  0.25000000  1.0
  P5+  P1  1  0.53960000  0.65000000  0.25000000  1.0
  P5+  P1  1  0.53960000  0.85000000  0.25000000  1.0
  P5+  P1  1  0.96040000  0.10792000  0.25000000  1.0
  P5+  P1  1  0.96040000  0.30792000  0.25000000  1.0
  P5+  P1  1  0.96040000  0.50792000  0.25000000  1.0
  P5+  P1  1  0.96040000  0.70792000  0.25000000  1.0
  P5+  P1  1  0.96040000  0.90792000  0.25000000  1.0
  P5+  P1  1  0.46040000  0.15000000  0.75000000  1.0
  P5+  P1  1  0.46040000  0.35000000  0.75000000  1.0
  P5+  P1  1  0.46040000  0.55000000  0.75000000  1.0
  P5+  P1  1  0.46040000  0.75000000  0.75000000  1.0
  P5+  P1  1  0.46040000  0.95000000  0.75000000  1.0
  P5+  P1  1  0.03960000  0.09208000  0.75000000  1.0
  P5+  P1  1  0.03960000  0.29208000  0.75000000  1.0
  P5+  P1  1  0.03960000  0.49208000  0.75000000  1.0
  P5+  P1  1  0.03960000  0.69208000  0.75000000  1.0
  P5+  P1  1  0.03960000  0.89208000  0.75000000  1.0
  P5+  P1  1  0.75000000  0.00792000  0.75000000  1.0
  P5+  P1  1  0.75000000  0.20792000  0.75000000  1.0
  P5+  P1  1  0.75000000  0.40792000  0.75000000  1.0
  P5+  P1  1  0.75000000  0.60792000  0.75000000  1.0
  P5+  P1  1  0.75000000  0.80792000  0.75000000  1.0
  O2-  O1  1  0.30650000  0.02374000  0.07120000  1.0
  O2-  O1  1  0.30650000  0.22374000  0.07120000  1.0
  O2-  O1  1  0.30650000  0.42374000  0.07120000  1.0
  O2-  O1  1  0.30650000  0.62374000  0.07120000  1.0
  O2-  O1  1  0.30650000  0.82374000  0.07120000  1.0
  O2-  O1  1  0.50360000  0.06130000  0.07120000  1.0
  O2-  O1  1  0.50360000  0.26130000  0.07120000  1.0
  O2-  O1  1  0.50360000  0.46130000  0.07120000  1.0
  O2-  O1  1  0.50360000  0.66130000  0.07120000  1.0
  O2-  O1  1  0.50360000  0.86130000  0.07120000  1.0
  O2-  O1  1  0.11870000  0.10072000  0.07120000  1.0
  O2-  O1  1  0.11870000  0.30072000  0.07120000  1.0
  O2-  O1  1  0.11870000  0.50072000  0.07120000  1.0
  O2-  O1  1  0.11870000  0.70072000  0.07120000  1.0
  O2-  O1  1  0.11870000  0.90072000  0.07120000  1.0
  O2-  O1  1  0.61870000  0.16130000  0.57120000  1.0
  O2-  O1  1  0.61870000  0.36130000  0.57120000  1.0
  O2-  O1  1  0.61870000  0.56130000  0.57120000  1.0
  O2-  O1  1  0.61870000  0.76130000  0.57120000  1.0
  O2-  O1  1  0.61870000  0.96130000  0.57120000  1.0
  O2-  O1  1  0.00360000  0.12374000  0.57120000  1.0
  O2-  O1  1  0.00360000  0.32374000  0.57120000  1.0
  O2-  O1  1  0.00360000  0.52374000  0.57120000  1.0
  O2-  O1  1  0.00360000  0.72374000  0.57120000  1.0
  O2-  O1  1  0.00360000  0.92374000  0.57120000  1.0
  O2-  O1  1  0.80650000  0.00072000  0.57120000  1.0
  O2-  O1  1  0.80650000  0.20072000  0.57120000  1.0
  O2-  O1  1  0.80650000  0.40072000  0.57120000  1.0
  O2-  O1  1  0.80650000  0.60072000  0.57120000  1.0
  O2-  O1  1  0.80650000  0.80072000  0.57120000  1.0
  O2-  O1  1  0.69350000  0.17626000  0.92880000  1.0
  O2-  O1  1  0.69350000  0.37626000  0.92880000  1.0
  O2-  O1  1  0.69350000  0.57626000  0.92880000  1.0
  O2-  O1  1  0.69350000  0.77626000  0.92880000  1.0
  O2-  O1  1  0.69350000  0.97626000  0.92880000  1.0
  O2-  O1  1  0.49640000  0.13870000  0.92880000  1.0
  O2-  O1  1  0.49640000  0.33870000  0.92880000  1.0
  O2-  O1  1  0.49640000  0.53870000  0.92880000  1.0
  O2-  O1  1  0.49640000  0.73870000  0.92880000  1.0
  O2-  O1  1  0.49640000  0.93870000  0.92880000  1.0
  O2-  O1  1  0.88130000  0.09928000  0.92880000  1.0
  O2-  O1  1  0.88130000  0.29928000  0.92880000  1.0
  O2-  O1  1  0.88130000  0.49928000  0.92880000  1.0
  O2-  O1  1  0.88130000  0.69928000  0.92880000  1.0
  O2-  O1  1  0.88130000  0.89928000  0.92880000  1.0
  O2-  O1  1  0.38130000  0.03870000  0.42880000  1.0
  O2-  O1  1  0.38130000  0.23870000  0.42880000  1.0
  O2-  O1  1  0.38130000  0.43870000  0.42880000  1.0
  O2-  O1  1  0.38130000  0.63870000  0.42880000  1.0
  O2-  O1  1  0.38130000  0.83870000  0.42880000  1.0
  O2-  O1  1  0.99640000  0.07626000  0.42880000  1.0
  O2-  O1  1  0.99640000  0.27626000  0.42880000  1.0
  O2-  O1  1  0.99640000  0.47626000  0.42880000  1.0
  O2-  O1  1  0.99640000  0.67626000  0.42880000  1.0
  O2-  O1  1  0.99640000  0.87626000  0.42880000  1.0
  O2-  O1  1  0.19350000  0.19928000  0.42880000  1.0
  O2-  O1  1  0.19350000  0.39928000  0.42880000  1.0
  O2-  O1  1  0.19350000  0.59928000  0.42880000  1.0
  O2-  O1  1  0.19350000  0.79928000  0.42880000  1.0
  O2-  O1  1  0.19350000  0.99928000  0.42880000  1.0
  O2-  O2  1  0.58380000  0.04686000  0.74300000  1.0
  O2-  O2  1  0.58380000  0.24686000  0.74300000  1.0
  O2-  O2  1  0.58380000  0.44686000  0.74300000  1.0
  O2-  O2  1  0.58380000  0.64686000  0.74300000  1.0
  O2-  O2  1  0.58380000  0.84686000  0.74300000  1.0
  O2-  O2  1  0.43890000  0.11676000  0.74300000  1.0
  O2-  O2  1  0.43890000  0.31676000  0.74300000  1.0
  O2-  O2  1  0.43890000  0.51676000  0.74300000  1.0
  O2-  O2  1  0.43890000  0.71676000  0.74300000  1.0
  O2-  O2  1  0.43890000  0.91676000  0.74300000  1.0
  O2-  O2  1  0.23430000  0.08778000  0.74300000  1.0
  O2-  O2  1  0.23430000  0.28778000  0.74300000  1.0
  O2-  O2  1  0.23430000  0.48778000  0.74300000  1.0
  O2-  O2  1  0.23430000  0.68778000  0.74300000  1.0
  O2-  O2  1  0.23430000  0.88778000  0.74300000  1.0
  O2-  O2  1  0.73430000  0.01676000  0.24300000  1.0
  O2-  O2  1  0.73430000  0.21676000  0.24300000  1.0
  O2-  O2  1  0.73430000  0.41676000  0.24300000  1.0
  O2-  O2  1  0.73430000  0.61676000  0.24300000  1.0
  O2-  O2  1  0.73430000  0.81676000  0.24300000  1.0
  O2-  O2  1  0.93890000  0.14686000  0.24300000  1.0
  O2-  O2  1  0.93890000  0.34686000  0.24300000  1.0
  O2-  O2  1  0.93890000  0.54686000  0.24300000  1.0
  O2-  O2  1  0.93890000  0.74686000  0.24300000  1.0
  O2-  O2  1  0.93890000  0.94686000  0.24300000  1.0
  O2-  O2  1  0.08380000  0.18778000  0.24300000  1.0
  O2-  O2  1  0.08380000  0.38778000  0.24300000  1.0
  O2-  O2  1  0.08380000  0.58778000  0.24300000  1.0
  O2-  O2  1  0.08380000  0.78778000  0.24300000  1.0
  O2-  O2  1  0.08380000  0.98778000  0.24300000  1.0
  O2-  O2  1  0.41620000  0.15314000  0.25700000  1.0
  O2-  O2  1  0.41620000  0.35314000  0.25700000  1.0
  O2-  O2  1  0.41620000  0.55314000  0.25700000  1.0
  O2-  O2  1  0.41620000  0.75314000  0.25700000  1.0
  O2-  O2  1  0.41620000  0.95314000  0.25700000  1.0
  O2-  O2  1  0.56110000  0.08324000  0.25700000  1.0
  O2-  O2  1  0.56110000  0.28324000  0.25700000  1.0
  O2-  O2  1  0.56110000  0.48324000  0.25700000  1.0
  O2-  O2  1  0.56110000  0.68324000  0.25700000  1.0
  O2-  O2  1  0.56110000  0.88324000  0.25700000  1.0
  O2-  O2  1  0.76570000  0.11222000  0.25700000  1.0
  O2-  O2  1  0.76570000  0.31222000  0.25700000  1.0
  O2-  O2  1  0.76570000  0.51222000  0.25700000  1.0
  O2-  O2  1  0.76570000  0.71222000  0.25700000  1.0
  O2-  O2  1  0.76570000  0.91222000  0.25700000  1.0
  O2-  O2  1  0.26570000  0.18324000  0.75700000  1.0
  O2-  O2  1  0.26570000  0.38324000  0.75700000  1.0
  O2-  O2  1  0.26570000  0.58324000  0.75700000  1.0
  O2-  O2  1  0.26570000  0.78324000  0.75700000  1.0
  O2-  O2  1  0.26570000  0.98324000  0.75700000  1.0
  O2-  O2  1  0.06110000  0.05314000  0.75700000  1.0
  O2-  O2  1  0.06110000  0.25314000  0.75700000  1.0
  O2-  O2  1  0.06110000  0.45314000  0.75700000  1.0
  O2-  O2  1  0.06110000  0.65314000  0.75700000  1.0
  O2-  O2  1  0.06110000  0.85314000  0.75700000  1.0
  O2-  O2  1  0.91620000  0.01222000  0.75700000  1.0
  O2-  O2  1  0.91620000  0.21222000  0.75700000  1.0
  O2-  O2  1  0.91620000  0.41222000  0.75700000  1.0
  O2-  O2  1  0.91620000  0.61222000  0.75700000  1.0
  O2-  O2  1  0.91620000  0.81222000  0.75700000  1.0
