# generated using pymatgen
data_Li61SnP9(Se5I)10
_symmetry_space_group_name_H-M   'P 1'
_cell_length_a   37.42221218
_cell_length_b   7.48444244
_cell_length_c   14.96888487
_cell_angle_alpha   60.00000000
_cell_angle_beta   120.00000000
_cell_angle_gamma   120.00000000
_symmetry_Int_Tables_number   1
_chemical_formula_structural   Li61SnP9(Se5I)10
_chemical_formula_sum   'Li61 Sn1 P9 Se50 I10'
_cell_volume   2964.58126610
_cell_formula_units_Z   1
loop_
 _symmetry_equiv_pos_site_id
 _symmetry_equiv_pos_as_xyz
  1  'x, y, z'
loop_
 _atom_type_symbol
 _atom_type_oxidation_number
  Li+  1.0
  Sn4+  4.0
  P5+  5.0
  Se2-  -2.0
  I-  -1.0
loop_
 _atom_site_type_symbol
 _atom_site_label
 _atom_site_symmetry_multiplicity
 _atom_site_fract_x
 _atom_site_fract_y
 _atom_site_fract_z
 _atom_site_occupancy
  Li+  Li0  1  0.89600000  0.52000000  0.24000000  1.0
  Li+  Li1  1  0.00522629  0.52146476  0.00975169  1.0
  Li+  Li2  1  0.60400000  0.52000000  0.51000000  1.0
  Li+  Li3  1  0.09555247  0.97708008  0.73435853  1.0
  Li+  Li4  1  0.49600000  0.98000000  0.24000000  1.0
  Li+  Li5  1  0.20596395  0.51730114  0.74099970  1.0
  Li+  Li6  1  0.20400000  0.52000000  0.24000000  1.0
  Li+  Li7  1  0.40400000  0.52000000  0.24000000  1.0
  Li+  Li8  1  0.60464865  0.51712726  0.23760377  1.0
  Li+  Li9  1  0.80400000  0.52000000  0.24000000  1.0
  Li+  Li10  1  0.00400000  0.98000000  0.51000000  1.0
  Li+  Li11  1  0.20400000  0.98000000  0.51000000  1.0
  Li+  Li12  1  0.09600000  0.98000000  0.51000000  1.0
  Li+  Li13  1  0.29096536  0.97842681  0.00731169  1.0
  Li+  Li14  1  0.69600000  0.98000000  0.01000000  1.0
  Li+  Li15  1  0.89600000  0.98000000  0.01000000  1.0
  Li+  Li16  1  0.27900000  0.44500000  0.73750000  1.0
  Li+  Li17  1  0.27900000  0.44500000  0.23750000  1.0
  Li+  Li18  1  0.47900000  0.44500000  0.73750000  1.0
  Li+  Li19  1  0.00500000  0.60500000  0.47250000  1.0
  Li+  Li20  1  0.20500000  0.60500000  0.47250000  1.0
  Li+  Li21  1  0.60500000  0.60500000  0.97250000  1.0
  Li+  Li22  1  0.80500000  0.60500000  0.47250000  1.0
  Li+  Li23  1  0.11100000  0.97500000  0.73750000  1.0
  Li+  Li24  1  0.11100000  0.97500000  0.23750000  1.0
  Li+  Li25  1  0.71100000  0.97500000  0.73750000  1.0
  Li+  Li26  1  0.11100000  0.60500000  0.73750000  1.0
  Li+  Li27  1  0.11355015  0.60321661  0.23724473  1.0
  Li+  Li28  1  0.31100000  0.60500000  0.73750000  1.0
  Li+  Li29  1  0.71100000  0.60500000  0.73750000  1.0
  Li+  Li30  1  0.71100000  0.60500000  0.23750000  1.0
  Li+  Li31  1  0.91100000  0.60500000  0.73750000  1.0
  Li+  Li32  1  0.91100000  0.60500000  0.23750000  1.0
  Li+  Li33  1  0.00500000  0.44500000  0.73750000  1.0
  Li+  Li34  1  0.60500000  0.44500000  0.73750000  1.0
  Li+  Li35  1  0.60542329  0.44320444  0.23466829  1.0
  Li+  Li36  1  0.00500000  0.60500000  0.23750000  1.0
  Li+  Li37  1  0.20500000  0.60500000  0.73750000  1.0
  Li+  Li38  1  0.60500000  0.60500000  0.23750000  1.0
  Li+  Li39  1  0.80500000  0.60500000  0.73750000  1.0
  Li+  Li40  1  0.40500000  0.44500000  0.55250000  1.0
  Li+  Li41  1  0.40500000  0.44500000  0.05250000  1.0
  Li+  Li42  1  0.40322006  0.97570757  0.05317694  1.0
  Li+  Li43  1  0.60500000  0.97500000  0.55250000  1.0
  Li+  Li44  1  0.27839114  0.97190915  0.74049162  1.0
  Li+  Li45  1  0.47807172  0.97226393  0.73470117  1.0
  Li+  Li46  1  0.20747581  0.97696355  0.47465719  1.0
  Li+  Li47  1  0.40500000  0.97500000  0.47250000  1.0
  Li+  Li48  1  0.60324342  0.97185284  0.97015317  1.0
  Li+  Li49  1  0.80500000  0.97500000  0.97250000  1.0
  Li+  Li50  1  0.10721792  0.97562817  0.05361196  1.0
  Li+  Li51  1  0.31100000  0.97500000  0.55250000  1.0
  Li+  Li52  1  0.31100000  0.97500000  0.05250000  1.0
  Li+  Li53  1  0.91100000  0.97500000  0.55250000  1.0
  Li+  Li54  1  0.07900000  0.97500000  0.47250000  1.0
  Li+  Li55  1  0.07900000  0.97500000  0.97250000  1.0
  Li+  Li56  1  0.47900000  0.97500000  0.47250000  1.0
  Li+  Li57  1  0.47900000  0.97500000  0.97250000  1.0
  Li+  Li58  1  0.67837330  0.97256208  0.46990615  1.0
  Li+  Li59  1  0.67900000  0.97500000  0.97250000  1.0
  Li+  Li60  1  0.87900000  0.97500000  0.97250000  1.0
  Sn4+  Sn61  1  0.29685453  0.50057392  0.99957824  1.0
  P5+  P62  1  0.10000000  0.50000000  0.50000000  1.0
  P5+  P63  1  0.09638276  0.49947633  0.00269999  1.0
  P5+  P64  1  0.30000000  0.50000000  0.50000000  1.0
  P5+  P65  1  0.50000000  0.50000000  0.50000000  1.0
  P5+  P66  1  0.50049119  0.49940900  0.99898199  1.0
  P5+  P67  1  0.70000000  0.50000000  0.50000000  1.0
  P5+  P68  1  0.69736569  0.49818543  0.99951447  1.0
  P5+  P69  1  0.90000000  0.50000000  0.50000000  1.0
  P5+  P70  1  0.89937515  0.49939768  0.99981617  1.0
  Se2-  Se71  1  0.12412000  0.37940000  0.68090000  1.0
  Se2-  Se72  1  0.12412000  0.37940000  0.18090000  1.0
  Se2-  Se73  1  0.32203827  0.37711342  0.67937545  1.0
  Se2-  Se74  1  0.32412000  0.37940000  0.18090000  1.0
  Se2-  Se75  1  0.52412000  0.37940000  0.68090000  1.0
  Se2-  Se76  1  0.52412000  0.37940000  0.18090000  1.0
  Se2-  Se77  1  0.72412000  0.37940000  0.68090000  1.0
  Se2-  Se78  1  0.72402562  0.37579228  0.18203064  1.0
  Se2-  Se79  1  0.92412000  0.37940000  0.68090000  1.0
  Se2-  Se80  1  0.92412000  0.37940000  0.18090000  1.0
  Se2-  Se81  1  0.12412000  0.37940000  0.43970000  1.0
  Se2-  Se82  1  0.12412000  0.37940000  0.93970000  1.0
  Se2-  Se83  1  0.31954398  0.37801499  0.44064163  1.0
  Se2-  Se84  1  0.32412000  0.37940000  0.93970000  1.0
  Se2-  Se85  1  0.52412000  0.37940000  0.43970000  1.0
  Se2-  Se86  1  0.52412000  0.37940000  0.93970000  1.0
  Se2-  Se87  1  0.72764603  0.37735525  0.43811117  1.0
  Se2-  Se88  1  0.72527247  0.37879436  0.93685712  1.0
  Se2-  Se89  1  0.92412000  0.37940000  0.43970000  1.0
  Se2-  Se90  1  0.92412000  0.37940000  0.93970000  1.0
  Se2-  Se91  1  0.12412000  0.86180000  0.43970000  1.0
  Se2-  Se92  1  0.12188985  0.86551714  0.94100625  1.0
  Se2-  Se93  1  0.32412000  0.86180000  0.43970000  1.0
  Se2-  Se94  1  0.32412000  0.86180000  0.93970000  1.0
  Se2-  Se95  1  0.52412000  0.86180000  0.43970000  1.0
  Se2-  Se96  1  0.52412000  0.86180000  0.93970000  1.0
  Se2-  Se97  1  0.72160085  0.86178511  0.44110940  1.0
  Se2-  Se98  1  0.72412000  0.86180000  0.93970000  1.0
  Se2-  Se99  1  0.92661984  0.86381419  0.44214028  1.0
  Se2-  Se100  1  0.92412000  0.86180000  0.93970000  1.0
  Se2-  Se101  1  0.02899959  0.37375126  0.43790765  1.0
  Se2-  Se102  1  0.02764000  0.37940000  0.93970000  1.0
  Se2-  Se103  1  0.22764000  0.37940000  0.43970000  1.0
  Se2-  Se104  1  0.22764000  0.37940000  0.93970000  1.0
  Se2-  Se105  1  0.42764000  0.37940000  0.43970000  1.0
  Se2-  Se106  1  0.42764000  0.37940000  0.93970000  1.0
  Se2-  Se107  1  0.62764000  0.37940000  0.43970000  1.0
  Se2-  Se108  1  0.62667294  0.37685650  0.93817528  1.0
  Se2-  Se109  1  0.82764000  0.37940000  0.43970000  1.0
  Se2-  Se110  1  0.82764000  0.37940000  0.93970000  1.0
  Se2-  Se111  1  0.80000000  0.00000000  0.75000000  1.0
  Se2-  Se112  1  0.05000000  0.75000000  0.62500000  1.0
  Se2-  Se113  1  0.05000000  0.75000000  0.12500000  1.0
  Se2-  Se114  1  0.25083494  0.74827365  0.62175864  1.0
  Se2-  Se115  1  0.45000000  0.75000000  0.62500000  1.0
  Se2-  Se116  1  0.45190290  0.74977264  0.12682275  1.0
  Se2-  Se117  1  0.65000000  0.75000000  0.62500000  1.0
  Se2-  Se118  1  0.65000000  0.75000000  0.12500000  1.0
  Se2-  Se119  1  0.85000000  0.75000000  0.62500000  1.0
  Se2-  Se120  1  0.85000000  0.75000000  0.12500000  1.0
  I-  I121  1  0.00000000  0.00000000  0.75000000  1.0
  I-  I122  1  0.00000000  0.00000000  0.25000000  1.0
  I-  I123  1  0.20000000  0.00000000  0.75000000  1.0
  I-  I124  1  0.20000000  0.00000000  0.25000000  1.0
  I-  I125  1  0.40000000  0.00000000  0.75000000  1.0
  I-  I126  1  0.40000000  0.00000000  0.25000000  1.0
  I-  I127  1  0.60000000  0.00000000  0.75000000  1.0
  I-  I128  1  0.59820639  0.99947697  0.24684342  1.0
  I-  I129  1  0.80000000  0.00000000  0.25000000  1.0
  I-  I130  1  0.25000000  0.75000000  0.12500000  1.0
