# generated using pymatgen
data_Li3BO3
_symmetry_space_group_name_H-M   'P 1'
_cell_length_a   19.59000000
_cell_length_b   8.31600000
_cell_length_c   9.18000000
_cell_angle_alpha   90.00000000
_cell_angle_beta   90.00000000
_cell_angle_gamma   101.05000000
_symmetry_Int_Tables_number   1
_chemical_formula_structural   Li3BO3
_chemical_formula_sum   'Li72 B24 O72'
_cell_volume   1467.79138328
_cell_formula_units_Z   24
loop_
 _symmetry_equiv_pos_site_id
 _symmetry_equiv_pos_as_xyz
  1  'x, y, z'
loop_
 _atom_type_symbol
 _atom_type_oxidation_number
  Li+  1.0
  B3+  3.0
  O2-  -2.0
loop_
 _atom_site_type_symbol
 _atom_site_label
 _atom_site_symmetry_multiplicity
 _atom_site_fract_x
 _atom_site_fract_y
 _atom_site_fract_z
 _atom_site_occupancy
  Li+  Li1  1  0.08443333  0.48250000  0.73300000  1.0
  Li+  Li1  1  0.41776667  0.48250000  0.73300000  1.0
  Li+  Li1  1  0.75110000  0.48250000  0.73300000  1.0
  Li+  Li1  1  0.25110000  0.48250000  0.73300000  1.0
  Li+  Li1  1  0.58443333  0.48250000  0.73300000  1.0
  Li+  Li1  1  0.91776667  0.48250000  0.73300000  1.0
  Li+  Li1  1  0.08223333  0.01750000  0.23300000  1.0
  Li+  Li1  1  0.41556667  0.01750000  0.23300000  1.0
  Li+  Li1  1  0.74890000  0.01750000  0.23300000  1.0
  Li+  Li1  1  0.24890000  0.01750000  0.23300000  1.0
  Li+  Li1  1  0.58223333  0.01750000  0.23300000  1.0
  Li+  Li1  1  0.91556667  0.01750000  0.23300000  1.0
  Li+  Li1  1  0.08223333  0.51750000  0.26700000  1.0
  Li+  Li1  1  0.41556667  0.51750000  0.26700000  1.0
  Li+  Li1  1  0.74890000  0.51750000  0.26700000  1.0
  Li+  Li1  1  0.24890000  0.51750000  0.26700000  1.0
  Li+  Li1  1  0.58223333  0.51750000  0.26700000  1.0
  Li+  Li1  1  0.91556667  0.51750000  0.26700000  1.0
  Li+  Li1  1  0.08443333  0.98250000  0.76700000  1.0
  Li+  Li1  1  0.41776667  0.98250000  0.76700000  1.0
  Li+  Li1  1  0.75110000  0.98250000  0.76700000  1.0
  Li+  Li1  1  0.25110000  0.98250000  0.76700000  1.0
  Li+  Li1  1  0.58443333  0.98250000  0.76700000  1.0
  Li+  Li1  1  0.91776667  0.98250000  0.76700000  1.0
  Li+  Li2  1  0.12150000  0.38700000  0.97710000  1.0
  Li+  Li2  1  0.45483333  0.38700000  0.97710000  1.0
  Li+  Li2  1  0.78816667  0.38700000  0.97710000  1.0
  Li+  Li2  1  0.28816667  0.38700000  0.97710000  1.0
  Li+  Li2  1  0.62150000  0.38700000  0.97710000  1.0
  Li+  Li2  1  0.95483333  0.38700000  0.97710000  1.0
  Li+  Li2  1  0.04516667  0.11300000  0.47710000  1.0
  Li+  Li2  1  0.37850000  0.11300000  0.47710000  1.0
  Li+  Li2  1  0.71183333  0.11300000  0.47710000  1.0
  Li+  Li2  1  0.21183333  0.11300000  0.47710000  1.0
  Li+  Li2  1  0.54516667  0.11300000  0.47710000  1.0
  Li+  Li2  1  0.87850000  0.11300000  0.47710000  1.0
  Li+  Li2  1  0.04516667  0.61300000  0.02290000  1.0
  Li+  Li2  1  0.37850000  0.61300000  0.02290000  1.0
  Li+  Li2  1  0.71183333  0.61300000  0.02290000  1.0
  Li+  Li2  1  0.21183333  0.61300000  0.02290000  1.0
  Li+  Li2  1  0.54516667  0.61300000  0.02290000  1.0
  Li+  Li2  1  0.87850000  0.61300000  0.02290000  1.0
  Li+  Li2  1  0.12150000  0.88700000  0.52290000  1.0
  Li+  Li2  1  0.45483333  0.88700000  0.52290000  1.0
  Li+  Li2  1  0.78816667  0.88700000  0.52290000  1.0
  Li+  Li2  1  0.28816667  0.88700000  0.52290000  1.0
  Li+  Li2  1  0.62150000  0.88700000  0.52290000  1.0
  Li+  Li2  1  0.95483333  0.88700000  0.52290000  1.0
  Li+  Li3  1  0.01553333  0.13310000  0.92880000  1.0
  Li+  Li3  1  0.34886667  0.13310000  0.92880000  1.0
  Li+  Li3  1  0.68220000  0.13310000  0.92880000  1.0
  Li+  Li3  1  0.18220000  0.13310000  0.92880000  1.0
  Li+  Li3  1  0.51553333  0.13310000  0.92880000  1.0
  Li+  Li3  1  0.84886667  0.13310000  0.92880000  1.0
  Li+  Li3  1  0.15113333  0.36690000  0.42880000  1.0
  Li+  Li3  1  0.48446667  0.36690000  0.42880000  1.0
  Li+  Li3  1  0.81780000  0.36690000  0.42880000  1.0
  Li+  Li3  1  0.31780000  0.36690000  0.42880000  1.0
  Li+  Li3  1  0.65113333  0.36690000  0.42880000  1.0
  Li+  Li3  1  0.98446667  0.36690000  0.42880000  1.0
  Li+  Li3  1  0.15113333  0.86690000  0.07120000  1.0
  Li+  Li3  1  0.48446667  0.86690000  0.07120000  1.0
  Li+  Li3  1  0.81780000  0.86690000  0.07120000  1.0
  Li+  Li3  1  0.31780000  0.86690000  0.07120000  1.0
  Li+  Li3  1  0.65113333  0.86690000  0.07120000  1.0
  Li+  Li3  1  0.98446667  0.86690000  0.07120000  1.0
  Li+  Li3  1  0.01553333  0.63310000  0.57120000  1.0
  Li+  Li3  1  0.34886667  0.63310000  0.57120000  1.0
  Li+  Li3  1  0.68220000  0.63310000  0.57120000  1.0
  Li+  Li3  1  0.18220000  0.63310000  0.57120000  1.0
  Li+  Li3  1  0.51553333  0.63310000  0.57120000  1.0
  Li+  Li3  1  0.84886667  0.63310000  0.57120000  1.0
  B3+  B1  1  0.13366667  0.24600000  0.68590000  1.0
  B3+  B1  1  0.46700000  0.24600000  0.68590000  1.0
  B3+  B1  1  0.80033333  0.24600000  0.68590000  1.0
  B3+  B1  1  0.30033333  0.24600000  0.68590000  1.0
  B3+  B1  1  0.63366667  0.24600000  0.68590000  1.0
  B3+  B1  1  0.96700000  0.24600000  0.68590000  1.0
  B3+  B1  1  0.03300000  0.25400000  0.18590000  1.0
  B3+  B1  1  0.36633333  0.25400000  0.18590000  1.0
  B3+  B1  1  0.69966667  0.25400000  0.18590000  1.0
  B3+  B1  1  0.19966667  0.25400000  0.18590000  1.0
  B3+  B1  1  0.53300000  0.25400000  0.18590000  1.0
  B3+  B1  1  0.86633333  0.25400000  0.18590000  1.0
  B3+  B1  1  0.03300000  0.75400000  0.31410000  1.0
  B3+  B1  1  0.36633333  0.75400000  0.31410000  1.0
  B3+  B1  1  0.69966667  0.75400000  0.31410000  1.0
  B3+  B1  1  0.19966667  0.75400000  0.31410000  1.0
  B3+  B1  1  0.53300000  0.75400000  0.31410000  1.0
  B3+  B1  1  0.86633333  0.75400000  0.31410000  1.0
  B3+  B1  1  0.13366667  0.74600000  0.81410000  1.0
  B3+  B1  1  0.46700000  0.74600000  0.81410000  1.0
  B3+  B1  1  0.80033333  0.74600000  0.81410000  1.0
  B3+  B1  1  0.30033333  0.74600000  0.81410000  1.0
  B3+  B1  1  0.63366667  0.74600000  0.81410000  1.0
  B3+  B1  1  0.96700000  0.74600000  0.81410000  1.0
  O2-  O1  1  0.16240000  0.40040000  0.63880000  1.0
  O2-  O1  1  0.49573333  0.40040000  0.63880000  1.0
  O2-  O1  1  0.82906667  0.40040000  0.63880000  1.0
  O2-  O1  1  0.32906667  0.40040000  0.63880000  1.0
  O2-  O1  1  0.66240000  0.40040000  0.63880000  1.0
  O2-  O1  1  0.99573333  0.40040000  0.63880000  1.0
  O2-  O1  1  0.00426667  0.09960000  0.13880000  1.0
  O2-  O1  1  0.33760000  0.09960000  0.13880000  1.0
  O2-  O1  1  0.67093333  0.09960000  0.13880000  1.0
  O2-  O1  1  0.17093333  0.09960000  0.13880000  1.0
  O2-  O1  1  0.50426667  0.09960000  0.13880000  1.0
  O2-  O1  1  0.83760000  0.09960000  0.13880000  1.0
  O2-  O1  1  0.00426667  0.59960000  0.36120000  1.0
  O2-  O1  1  0.33760000  0.59960000  0.36120000  1.0
  O2-  O1  1  0.67093333  0.59960000  0.36120000  1.0
  O2-  O1  1  0.17093333  0.59960000  0.36120000  1.0
  O2-  O1  1  0.50426667  0.59960000  0.36120000  1.0
  O2-  O1  1  0.83760000  0.59960000  0.36120000  1.0
  O2-  O1  1  0.16240000  0.90040000  0.86120000  1.0
  O2-  O1  1  0.49573333  0.90040000  0.86120000  1.0
  O2-  O1  1  0.82906667  0.90040000  0.86120000  1.0
  O2-  O1  1  0.32906667  0.90040000  0.86120000  1.0
  O2-  O1  1  0.66240000  0.90040000  0.86120000  1.0
  O2-  O1  1  0.99573333  0.90040000  0.86120000  1.0
  O2-  O2  1  0.12925000  0.11380000  0.59360000  1.0
  O2-  O2  1  0.46258333  0.11380000  0.59360000  1.0
  O2-  O2  1  0.79591667  0.11380000  0.59360000  1.0
  O2-  O2  1  0.29591667  0.11380000  0.59360000  1.0
  O2-  O2  1  0.62925000  0.11380000  0.59360000  1.0
  O2-  O2  1  0.96258333  0.11380000  0.59360000  1.0
  O2-  O2  1  0.03741667  0.38620000  0.09360000  1.0
  O2-  O2  1  0.37075000  0.38620000  0.09360000  1.0
  O2-  O2  1  0.70408333  0.38620000  0.09360000  1.0
  O2-  O2  1  0.20408333  0.38620000  0.09360000  1.0
  O2-  O2  1  0.53741667  0.38620000  0.09360000  1.0
  O2-  O2  1  0.87075000  0.38620000  0.09360000  1.0
  O2-  O2  1  0.03741667  0.88620000  0.40640000  1.0
  O2-  O2  1  0.37075000  0.88620000  0.40640000  1.0
  O2-  O2  1  0.70408333  0.88620000  0.40640000  1.0
  O2-  O2  1  0.20408333  0.88620000  0.40640000  1.0
  O2-  O2  1  0.53741667  0.88620000  0.40640000  1.0
  O2-  O2  1  0.87075000  0.88620000  0.40640000  1.0
  O2-  O2  1  0.12925000  0.61380000  0.90640000  1.0
  O2-  O2  1  0.46258333  0.61380000  0.90640000  1.0
  O2-  O2  1  0.79591667  0.61380000  0.90640000  1.0
  O2-  O2  1  0.29591667  0.61380000  0.90640000  1.0
  O2-  O2  1  0.62925000  0.61380000  0.90640000  1.0
  O2-  O2  1  0.96258333  0.61380000  0.90640000  1.0
  O2-  O3  1  0.10646667  0.22180000  0.82490000  1.0
  O2-  O3  1  0.43980000  0.22180000  0.82490000  1.0
  O2-  O3  1  0.77313333  0.22180000  0.82490000  1.0
  O2-  O3  1  0.27313333  0.22180000  0.82490000  1.0
  O2-  O3  1  0.60646667  0.22180000  0.82490000  1.0
  O2-  O3  1  0.93980000  0.22180000  0.82490000  1.0
  O2-  O3  1  0.06020000  0.27820000  0.32490000  1.0
  O2-  O3  1  0.39353333  0.27820000  0.32490000  1.0
  O2-  O3  1  0.72686667  0.27820000  0.32490000  1.0
  O2-  O3  1  0.22686667  0.27820000  0.32490000  1.0
  O2-  O3  1  0.56020000  0.27820000  0.32490000  1.0
  O2-  O3  1  0.89353333  0.27820000  0.32490000  1.0
  O2-  O3  1  0.06020000  0.77820000  0.17510000  1.0
  O2-  O3  1  0.39353333  0.77820000  0.17510000  1.0
  O2-  O3  1  0.72686667  0.77820000  0.17510000  1.0
  O2-  O3  1  0.22686667  0.77820000  0.17510000  1.0
  O2-  O3  1  0.56020000  0.77820000  0.17510000  1.0
  O2-  O3  1  0.89353333  0.77820000  0.17510000  1.0
  O2-  O3  1  0.10646667  0.72180000  0.67510000  1.0
  O2-  O3  1  0.43980000  0.72180000  0.67510000  1.0
  O2-  O3  1  0.77313333  0.72180000  0.67510000  1.0
  O2-  O3  1  0.27313333  0.72180000  0.67510000  1.0
  O2-  O3  1  0.60646667  0.72180000  0.67510000  1.0
  O2-  O3  1  0.93980000  0.72180000  0.67510000  1.0
