# generated using pymatgen
data_Li10Sn(PS6)2
_symmetry_space_group_name_H-M   'P 1'
_cell_length_a   26.11710000
_cell_length_b   12.73890000
_cell_length_c   8.70570000
_cell_angle_alpha   90.00000000
_cell_angle_beta   90.00000000
_cell_angle_gamma   90.00000000
_symmetry_Int_Tables_number   1
_chemical_formula_structural   Li10Sn(PS6)2
_chemical_formula_sum   'Li60 Sn6 P12 S72'
_cell_volume   2896.41359697
_cell_formula_units_Z   6
loop_
 _symmetry_equiv_pos_site_id
 _symmetry_equiv_pos_as_xyz
  1  'x, y, z'
loop_
 _atom_type_symbol
 _atom_type_oxidation_number
  Li+  1.0
  Sn4+  4.0
  P5+  5.0
  S2-  -2.0
loop_
 _atom_site_type_symbol
 _atom_site_label
 _atom_site_symmetry_multiplicity
 _atom_site_fract_x
 _atom_site_fract_y
 _atom_site_fract_z
 _atom_site_occupancy
  Li+  Li0  1  0.25000000  0.30630000  0.00000000  1.0
  Li+  Li1  1  0.58333333  0.30630000  0.00000000  1.0
  Li+  Li2  1  0.91567032  0.31042458  0.99682791  1.0
  Li+  Li3  1  0.25000000  0.80630000  0.00000000  1.0
  Li+  Li4  1  0.58155311  0.80578061  0.99839974  1.0
  Li+  Li5  1  0.91666667  0.80630000  0.00000000  1.0
  Li+  Li6  1  0.08333333  0.69370000  0.50000000  1.0
  Li+  Li7  1  0.41666667  0.69370000  0.50000000  1.0
  Li+  Li8  1  0.75000000  0.69370000  0.50000000  1.0
  Li+  Li9  1  0.08333333  0.19370000  0.50000000  1.0
  Li+  Li10  1  0.41666667  0.19370000  0.50000000  1.0
  Li+  Li11  1  0.74678044  0.18778725  0.49820945  1.0
  Li+  Li12  1  0.33100000  0.28500000  0.77700000  1.0
  Li+  Li13  1  0.66433333  0.28500000  0.77700000  1.0
  Li+  Li14  1  0.99713670  0.28076242  0.77822408  1.0
  Li+  Li15  1  0.33100000  0.28500000  0.22300000  1.0
  Li+  Li16  1  0.66433333  0.28500000  0.22300000  1.0
  Li+  Li17  1  0.00057597  0.28440863  0.21688797  1.0
  Li+  Li18  1  0.32433333  0.78500000  0.75700000  1.0
  Li+  Li19  1  0.66222280  0.77834710  0.75470271  1.0
  Li+  Li20  1  0.99021442  0.77991810  0.75620115  1.0
  Li+  Li21  1  0.00486906  0.71676818  0.27776375  1.0
  Li+  Li22  1  0.33566667  0.71500000  0.27700000  1.0
  Li+  Li23  1  0.66544986  0.71090578  0.28263514  1.0
  Li+  Li24  1  0.15766667  0.21500000  0.74300000  1.0
  Li+  Li25  1  0.49010128  0.21466903  0.74440443  1.0
  Li+  Li26  1  0.82433333  0.21500000  0.74300000  1.0
  Li+  Li27  1  0.33000000  0.42800000  0.73600000  1.0
  Li+  Li28  1  0.66333333  0.42800000  0.73600000  1.0
  Li+  Li29  1  0.99503404  0.43092923  0.73344290  1.0
  Li+  Li30  1  0.00760952  0.93036520  0.76188459  1.0
  Li+  Li31  1  0.34048967  0.92576848  0.76466755  1.0
  Li+  Li32  1  0.67133333  0.92800000  0.76000000  1.0
  Li+  Li33  1  0.16200000  0.92800000  0.76000000  1.0
  Li+  Li34  1  0.49533333  0.92800000  0.76000000  1.0
  Li+  Li35  1  0.82866667  0.92800000  0.76000000  1.0
  Li+  Li36  1  0.00466667  0.92800000  0.24000000  1.0
  Li+  Li37  1  0.34130388  0.92585802  0.23832695  1.0
  Li+  Li38  1  0.67133333  0.92800000  0.24000000  1.0
  Li+  Li39  1  0.16200000  0.92800000  0.24000000  1.0
  Li+  Li40  1  0.49400621  0.93190068  0.23559777  1.0
  Li+  Li41  1  0.83019174  0.92740219  0.24084889  1.0
  Li+  Li42  1  0.16333333  0.57200000  0.76400000  1.0
  Li+  Li43  1  0.49666667  0.57200000  0.76400000  1.0
  Li+  Li44  1  0.82907335  0.56997058  0.76316913  1.0
  Li+  Li45  1  0.16333333  0.57200000  0.23600000  1.0
  Li+  Li46  1  0.49666667  0.57200000  0.23600000  1.0
  Li+  Li47  1  0.83000000  0.57200000  0.23600000  1.0
  Li+  Li48  1  0.32866667  0.07200000  0.26000000  1.0
  Li+  Li49  1  0.66200000  0.07200000  0.26000000  1.0
  Li+  Li50  1  0.99533333  0.07200000  0.26000000  1.0
  Li+  Li51  1  0.08333333  0.50420000  0.00000000  1.0
  Li+  Li52  1  0.41666667  0.50420000  0.00000000  1.0
  Li+  Li53  1  0.75000000  0.50420000  0.00000000  1.0
  Li+  Li54  1  0.25000000  0.00420000  0.50000000  1.0
  Li+  Li55  1  0.58417396  0.00226466  0.49919550  1.0
  Li+  Li56  1  0.91666667  0.00420000  0.50000000  1.0
  Li+  Li57  1  0.25000000  0.49580000  0.50000000  1.0
  Li+  Li58  1  0.58333333  0.49580000  0.50000000  1.0
  Li+  Li59  1  0.91666667  0.49580000  0.50000000  1.0
  Sn4+  Sn60  1  0.25000000  0.06369000  0.00000000  1.0
  Sn4+  Sn61  1  0.58333333  0.06369000  0.00000000  1.0
  Sn4+  Sn62  1  0.91490946  0.06423889  0.99652730  1.0
  Sn4+  Sn63  1  0.08333333  0.93631000  0.50000000  1.0
  Sn4+  Sn64  1  0.41666667  0.93631000  0.50000000  1.0
  Sn4+  Sn65  1  0.75000000  0.93631000  0.50000000  1.0
  P5+  P66  1  0.25474333  0.56593590  0.00130997  1.0
  P5+  P67  1  0.58333333  0.56369000  0.00000000  1.0
  P5+  P68  1  0.91632180  0.56691226  0.99892057  1.0
  P5+  P69  1  0.08372580  0.43870972  0.50121960  1.0
  P5+  P70  1  0.41800584  0.44144991  0.50021178  1.0
  P5+  P71  1  0.75000000  0.43631000  0.50000000  1.0
  P5+  P72  1  0.25000000  0.25000000  0.50000000  1.0
  P5+  P73  1  0.58333333  0.25000000  0.50000000  1.0
  P5+  P74  1  0.91666667  0.25000000  0.50000000  1.0
  P5+  P75  1  0.08333333  0.75000000  0.00000000  1.0
  P5+  P76  1  0.41666667  0.75000000  0.00000000  1.0
  P5+  P77  1  0.75000000  0.75000000  0.00000000  1.0
  S2-  S78  1  0.25000000  0.34246000  0.68977000  1.0
  S2-  S79  1  0.58333333  0.34246000  0.68977000  1.0
  S2-  S80  1  0.91666667  0.34246000  0.68977000  1.0
  S2-  S81  1  0.25089562  0.34253547  0.30691735  1.0
  S2-  S82  1  0.58333333  0.34246000  0.31023000  1.0
  S2-  S83  1  0.91666667  0.34246000  0.31023000  1.0
  S2-  S84  1  0.02007667  0.84246000  0.00000000  1.0
  S2-  S85  1  0.35445916  0.84446846  0.00240915  1.0
  S2-  S86  1  0.68674333  0.84246000  0.00000000  1.0
  S2-  S87  1  0.14659000  0.84246000  0.00000000  1.0
  S2-  S88  1  0.47992333  0.84246000  0.00000000  1.0
  S2-  S89  1  0.81325667  0.84246000  0.00000000  1.0
  S2-  S90  1  0.08333333  0.65754000  0.81023000  1.0
  S2-  S91  1  0.41666667  0.65754000  0.81023000  1.0
  S2-  S92  1  0.75000000  0.65754000  0.81023000  1.0
  S2-  S93  1  0.08333333  0.65754000  0.18977000  1.0
  S2-  S94  1  0.41666667  0.65754000  0.18977000  1.0
  S2-  S95  1  0.75000000  0.65754000  0.18977000  1.0
  S2-  S96  1  0.31325667  0.15754000  0.50000000  1.0
  S2-  S97  1  0.64490274  0.16038132  0.50107646  1.0
  S2-  S98  1  0.97992333  0.15754000  0.50000000  1.0
  S2-  S99  1  0.18674333  0.15754000  0.50000000  1.0
  S2-  S100  1  0.52007667  0.15754000  0.50000000  1.0
  S2-  S101  1  0.85566118  0.15323679  0.49929969  1.0
  S2-  S102  1  0.32140279  0.15595265  0.99940707  1.0
  S2-  S103  1  0.65320000  0.15620000  0.00000000  1.0
  S2-  S104  1  0.98653333  0.15620000  0.00000000  1.0
  S2-  S105  1  0.18013333  0.15620000  0.00000000  1.0
  S2-  S106  1  0.51346667  0.15620000  0.00000000  1.0
  S2-  S107  1  0.84538707  0.16283052  0.99456710  1.0
  S2-  S108  1  0.25000000  0.65620000  0.79040000  1.0
  S2-  S109  1  0.58333333  0.65620000  0.79040000  1.0
  S2-  S110  1  0.91666667  0.65620000  0.79040000  1.0
  S2-  S111  1  0.25000000  0.65620000  0.20960000  1.0
  S2-  S112  1  0.58333333  0.65620000  0.20960000  1.0
  S2-  S113  1  0.91666667  0.65620000  0.20960000  1.0
  S2-  S114  1  0.01346667  0.84380000  0.50000000  1.0
  S2-  S115  1  0.34680000  0.84380000  0.50000000  1.0
  S2-  S116  1  0.67749430  0.84669524  0.50122949  1.0
  S2-  S117  1  0.15320000  0.84380000  0.50000000  1.0
  S2-  S118  1  0.48653333  0.84380000  0.50000000  1.0
  S2-  S119  1  0.81986667  0.84380000  0.50000000  1.0
  S2-  S120  1  0.08333333  0.34380000  0.70960000  1.0
  S2-  S121  1  0.41482014  0.33822876  0.70792927  1.0
  S2-  S122  1  0.75000000  0.34380000  0.70960000  1.0
  S2-  S123  1  0.08333333  0.34380000  0.29040000  1.0
  S2-  S124  1  0.41666667  0.34380000  0.29040000  1.0
  S2-  S125  1  0.75000000  0.34380000  0.29040000  1.0
  S2-  S126  1  0.31780000  0.46044000  0.00000000  1.0
  S2-  S127  1  0.65113333  0.46044000  0.00000000  1.0
  S2-  S128  1  0.98446667  0.46044000  0.00000000  1.0
  S2-  S129  1  0.18220000  0.46044000  0.00000000  1.0
  S2-  S130  1  0.51553333  0.46044000  0.00000000  1.0
  S2-  S131  1  0.84886667  0.46044000  0.00000000  1.0
  S2-  S132  1  0.25000000  0.96044000  0.79660000  1.0
  S2-  S133  1  0.58333333  0.96044000  0.79660000  1.0
  S2-  S134  1  0.91666667  0.96044000  0.79660000  1.0
  S2-  S135  1  0.25245441  0.96338354  0.20410735  1.0
  S2-  S136  1  0.58333333  0.96044000  0.20340000  1.0
  S2-  S137  1  0.91666667  0.96044000  0.20340000  1.0
  S2-  S138  1  0.01553333  0.53956000  0.50000000  1.0
  S2-  S139  1  0.34886667  0.53956000  0.50000000  1.0
  S2-  S140  1  0.68220000  0.53956000  0.50000000  1.0
  S2-  S141  1  0.15113333  0.53956000  0.50000000  1.0
  S2-  S142  1  0.48647437  0.53904779  0.49874839  1.0
  S2-  S143  1  0.81866190  0.53646827  0.49414259  1.0
  S2-  S144  1  0.08333333  0.03956000  0.70340000  1.0
  S2-  S145  1  0.41596952  0.03656915  0.70279266  1.0
  S2-  S146  1  0.74753506  0.03354531  0.70382583  1.0
  S2-  S147  1  0.08333333  0.03956000  0.29660000  1.0
  S2-  S148  1  0.41525114  0.03912750  0.29867655  1.0
  S2-  S149  1  0.75000000  0.03956000  0.29660000  1.0
