# generated using pymatgen
data_Li10Sn(PS6)2
_symmetry_space_group_name_H-M   'P 1'
_cell_length_a   8.63058210
_cell_length_b   25.89174629
_cell_length_c   12.62898127
_cell_angle_alpha   90.00000000
_cell_angle_beta   90.00000000
_cell_angle_gamma   90.00000000
_symmetry_Int_Tables_number   1
_chemical_formula_structural   Li10Sn(PS6)2
_chemical_formula_sum   'Li60 Sn6 P12 S72'
_cell_volume   2822.08278906
_cell_formula_units_Z   6
loop_
 _symmetry_equiv_pos_site_id
 _symmetry_equiv_pos_as_xyz
  1  'x, y, z'
loop_
 _atom_type_symbol
 _atom_type_oxidation_number
  Li+  1.0
  Sn4+  4.0
  P5+  5.0
  S2-  -2.0
loop_
 _atom_site_type_symbol
 _atom_site_label
 _atom_site_symmetry_multiplicity
 _atom_site_fract_x
 _atom_site_fract_y
 _atom_site_fract_z
 _atom_site_occupancy
  Li+  Li0  1  0.25000000  0.41666667  0.69370000  1.0
  Li+  Li1  1  0.25000000  0.08333333  0.69370000  1.0
  Li+  Li2  1  0.25000000  0.75000000  0.69370000  1.0
  Li+  Li3  1  0.25000000  0.41666667  0.19370000  1.0
  Li+  Li4  1  0.25000000  0.08333333  0.19370000  1.0
  Li+  Li5  1  0.25000000  0.75000000  0.19370000  1.0
  Li+  Li6  1  0.75000000  0.58333333  0.30630000  1.0
  Li+  Li7  1  0.75000000  0.25000000  0.30630000  1.0
  Li+  Li8  1  0.75000000  0.91666667  0.30630000  1.0
  Li+  Li9  1  0.75000000  0.58333333  0.80630000  1.0
  Li+  Li10  1  0.75000000  0.25000000  0.80630000  1.0
  Li+  Li11  1  0.75000000  0.91666667  0.80630000  1.0
  Li+  Li12  1  0.02700000  0.33566667  0.71500000  1.0
  Li+  Li13  1  0.02700000  0.00233333  0.71500000  1.0
  Li+  Li14  1  0.02700000  0.66900000  0.71500000  1.0
  Li+  Li15  1  0.47300000  0.33566667  0.71500000  1.0
  Li+  Li16  1  0.47300000  0.00233333  0.71500000  1.0
  Li+  Li17  1  0.47300000  0.66900000  0.71500000  1.0
  Li+  Li18  1  0.00700000  0.34233333  0.21500000  1.0
  Li+  Li19  1  0.00700000  0.00900000  0.21500000  1.0
  Li+  Li20  1  0.00700000  0.67566667  0.21500000  1.0
  Li+  Li21  1  0.52700000  0.66433333  0.28500000  1.0
  Li+  Li22  1  0.52700000  0.33100000  0.28500000  1.0
  Li+  Li23  1  0.52700000  0.99766667  0.28500000  1.0
  Li+  Li24  1  0.99300000  0.50900000  0.78500000  1.0
  Li+  Li25  1  0.99300000  0.17566667  0.78500000  1.0
  Li+  Li26  1  0.99300000  0.84233333  0.78500000  1.0
  Li+  Li27  1  0.98600000  0.33666667  0.57200000  1.0
  Li+  Li28  1  0.98600000  0.00333333  0.57200000  1.0
  Li+  Li29  1  0.98600000  0.67000000  0.57200000  1.0
  Li+  Li30  1  0.01000000  0.66200000  0.07200000  1.0
  Li+  Li31  1  0.01000000  0.32866667  0.07200000  1.0
  Li+  Li32  1  0.01000000  0.99533333  0.07200000  1.0
  Li+  Li33  1  0.01000000  0.50466667  0.07200000  1.0
  Li+  Li34  1  0.01000000  0.17133333  0.07200000  1.0
  Li+  Li35  1  0.01000000  0.83800000  0.07200000  1.0
  Li+  Li36  1  0.49000000  0.66200000  0.07200000  1.0
  Li+  Li37  1  0.49000000  0.32866667  0.07200000  1.0
  Li+  Li38  1  0.49000000  0.99533333  0.07200000  1.0
  Li+  Li39  1  0.49000000  0.50466667  0.07200000  1.0
  Li+  Li40  1  0.49000000  0.17133333  0.07200000  1.0
  Li+  Li41  1  0.49000000  0.83800000  0.07200000  1.0
  Li+  Li42  1  0.01400000  0.50333333  0.42800000  1.0
  Li+  Li43  1  0.01400000  0.17000000  0.42800000  1.0
  Li+  Li44  1  0.01400000  0.83666667  0.42800000  1.0
  Li+  Li45  1  0.48600000  0.50333333  0.42800000  1.0
  Li+  Li46  1  0.48600000  0.17000000  0.42800000  1.0
  Li+  Li47  1  0.48600000  0.83666667  0.42800000  1.0
  Li+  Li48  1  0.51000000  0.33800000  0.92800000  1.0
  Li+  Li49  1  0.51000000  0.00466667  0.92800000  1.0
  Li+  Li50  1  0.51000000  0.67133333  0.92800000  1.0
  Li+  Li51  1  0.25000000  0.58333333  0.49580000  1.0
  Li+  Li52  1  0.25000000  0.25000000  0.49580000  1.0
  Li+  Li53  1  0.25000000  0.91666667  0.49580000  1.0
  Li+  Li54  1  0.75000000  0.41666667  0.99580000  1.0
  Li+  Li55  1  0.75000000  0.08333333  0.99580000  1.0
  Li+  Li56  1  0.75000000  0.75000000  0.99580000  1.0
  Li+  Li57  1  0.75000000  0.41666667  0.50420000  1.0
  Li+  Li58  1  0.75000000  0.08333333  0.50420000  1.0
  Li+  Li59  1  0.75000000  0.75000000  0.50420000  1.0
  Sn4+  Sn60  1  0.25000000  0.41666667  0.93631000  1.0
  Sn4+  Sn61  1  0.25000000  0.08333333  0.93631000  1.0
  Sn4+  Sn62  1  0.25000000  0.75000000  0.93631000  1.0
  Sn4+  Sn63  1  0.75000000  0.58333333  0.06369000  1.0
  Sn4+  Sn64  1  0.75000000  0.25000000  0.06369000  1.0
  Sn4+  Sn65  1  0.75000000  0.91666667  0.06369000  1.0
  P5+  P66  1  0.25000000  0.41666667  0.43631000  1.0
  P5+  P67  1  0.25000000  0.08333333  0.43631000  1.0
  P5+  P68  1  0.25000000  0.75000000  0.43631000  1.0
  P5+  P69  1  0.75000000  0.58333333  0.56369000  1.0
  P5+  P70  1  0.75000000  0.25000000  0.56369000  1.0
  P5+  P71  1  0.75000000  0.91666667  0.56369000  1.0
  P5+  P72  1  0.75000000  0.41666667  0.75000000  1.0
  P5+  P73  1  0.75000000  0.08333333  0.75000000  1.0
  P5+  P74  1  0.75000000  0.75000000  0.75000000  1.0
  P5+  P75  1  0.25000000  0.58333333  0.25000000  1.0
  P5+  P76  1  0.25000000  0.25000000  0.25000000  1.0
  P5+  P77  1  0.25000000  0.91666667  0.25000000  1.0
  S2-  S78  1  0.93977000  0.41666667  0.65754000  1.0
  S2-  S79  1  0.93977000  0.08333333  0.65754000  1.0
  S2-  S80  1  0.93977000  0.75000000  0.65754000  1.0
  S2-  S81  1  0.56023000  0.41666667  0.65754000  1.0
  S2-  S82  1  0.56023000  0.08333333  0.65754000  1.0
  S2-  S83  1  0.56023000  0.75000000  0.65754000  1.0
  S2-  S84  1  0.25000000  0.64659000  0.15754000  1.0
  S2-  S85  1  0.25000000  0.31325667  0.15754000  1.0
  S2-  S86  1  0.25000000  0.97992333  0.15754000  1.0
  S2-  S87  1  0.25000000  0.52007667  0.15754000  1.0
  S2-  S88  1  0.25000000  0.18674333  0.15754000  1.0
  S2-  S89  1  0.25000000  0.85341000  0.15754000  1.0
  S2-  S90  1  0.06023000  0.58333333  0.34246000  1.0
  S2-  S91  1  0.06023000  0.25000000  0.34246000  1.0
  S2-  S92  1  0.06023000  0.91666667  0.34246000  1.0
  S2-  S93  1  0.43977000  0.58333333  0.34246000  1.0
  S2-  S94  1  0.43977000  0.25000000  0.34246000  1.0
  S2-  S95  1  0.43977000  0.91666667  0.34246000  1.0
  S2-  S96  1  0.75000000  0.35341000  0.84246000  1.0
  S2-  S97  1  0.75000000  0.02007667  0.84246000  1.0
  S2-  S98  1  0.75000000  0.68674333  0.84246000  1.0
  S2-  S99  1  0.75000000  0.47992333  0.84246000  1.0
  S2-  S100  1  0.75000000  0.14659000  0.84246000  1.0
  S2-  S101  1  0.75000000  0.81325667  0.84246000  1.0
  S2-  S102  1  0.25000000  0.34680000  0.84380000  1.0
  S2-  S103  1  0.25000000  0.01346667  0.84380000  1.0
  S2-  S104  1  0.25000000  0.68013333  0.84380000  1.0
  S2-  S105  1  0.25000000  0.48653333  0.84380000  1.0
  S2-  S106  1  0.25000000  0.15320000  0.84380000  1.0
  S2-  S107  1  0.25000000  0.81986667  0.84380000  1.0
  S2-  S108  1  0.04040000  0.41666667  0.34380000  1.0
  S2-  S109  1  0.04040000  0.08333333  0.34380000  1.0
  S2-  S110  1  0.04040000  0.75000000  0.34380000  1.0
  S2-  S111  1  0.45960000  0.41666667  0.34380000  1.0
  S2-  S112  1  0.45960000  0.08333333  0.34380000  1.0
  S2-  S113  1  0.45960000  0.75000000  0.34380000  1.0
  S2-  S114  1  0.75000000  0.65320000  0.15620000  1.0
  S2-  S115  1  0.75000000  0.31986667  0.15620000  1.0
  S2-  S116  1  0.75000000  0.98653333  0.15620000  1.0
  S2-  S117  1  0.75000000  0.51346667  0.15620000  1.0
  S2-  S118  1  0.75000000  0.18013333  0.15620000  1.0
  S2-  S119  1  0.75000000  0.84680000  0.15620000  1.0
  S2-  S120  1  0.95960000  0.58333333  0.65620000  1.0
  S2-  S121  1  0.95960000  0.25000000  0.65620000  1.0
  S2-  S122  1  0.95960000  0.91666667  0.65620000  1.0
  S2-  S123  1  0.54040000  0.58333333  0.65620000  1.0
  S2-  S124  1  0.54040000  0.25000000  0.65620000  1.0
  S2-  S125  1  0.54040000  0.91666667  0.65620000  1.0
  S2-  S126  1  0.25000000  0.34886667  0.53956000  1.0
  S2-  S127  1  0.25000000  0.01553333  0.53956000  1.0
  S2-  S128  1  0.25000000  0.68220000  0.53956000  1.0
  S2-  S129  1  0.25000000  0.48446667  0.53956000  1.0
  S2-  S130  1  0.25000000  0.15113333  0.53956000  1.0
  S2-  S131  1  0.25000000  0.81780000  0.53956000  1.0
  S2-  S132  1  0.04660000  0.41666667  0.03956000  1.0
  S2-  S133  1  0.04660000  0.08333333  0.03956000  1.0
  S2-  S134  1  0.04660000  0.75000000  0.03956000  1.0
  S2-  S135  1  0.45340000  0.41666667  0.03956000  1.0
  S2-  S136  1  0.45340000  0.08333333  0.03956000  1.0
  S2-  S137  1  0.45340000  0.75000000  0.03956000  1.0
  S2-  S138  1  0.75000000  0.65113333  0.46044000  1.0
  S2-  S139  1  0.75000000  0.31780000  0.46044000  1.0
  S2-  S140  1  0.75000000  0.98446667  0.46044000  1.0
  S2-  S141  1  0.75000000  0.51553333  0.46044000  1.0
  S2-  S142  1  0.75000000  0.18220000  0.46044000  1.0
  S2-  S143  1  0.75000000  0.84886667  0.46044000  1.0
  S2-  S144  1  0.95340000  0.58333333  0.96044000  1.0
  S2-  S145  1  0.95340000  0.25000000  0.96044000  1.0
  S2-  S146  1  0.95340000  0.91666667  0.96044000  1.0
  S2-  S147  1  0.54660000  0.58333333  0.96044000  1.0
  S2-  S148  1  0.54660000  0.25000000  0.96044000  1.0
  S2-  S149  1  0.54660000  0.91666667  0.96044000  1.0
