# generated using pymatgen
data_Li10Sn(PS6)2
_symmetry_space_group_name_H-M   'P 1'
_cell_length_a   26.11710000
_cell_length_b   8.70570000
_cell_length_c   12.73890000
_cell_angle_alpha   90.00000000
_cell_angle_beta   90.00000000
_cell_angle_gamma   90.00000000
_symmetry_Int_Tables_number   1
_chemical_formula_structural   Li10Sn(PS6)2
_chemical_formula_sum   'Li60 Sn6 P12 S72'
_cell_volume   2896.41359697
_cell_formula_units_Z   6
loop_
 _symmetry_equiv_pos_site_id
 _symmetry_equiv_pos_as_xyz
  1  'x, y, z'
loop_
 _atom_type_symbol
 _atom_type_oxidation_number
  Li+  1.0
  Sn4+  4.0
  P5+  5.0
  S2-  -2.0
loop_
 _atom_site_type_symbol
 _atom_site_label
 _atom_site_symmetry_multiplicity
 _atom_site_fract_x
 _atom_site_fract_y
 _atom_site_fract_z
 _atom_site_occupancy
  Li+  Li3  1  0.25000000  0.75000000  0.69370000  1.0
  Li+  Li3  1  0.58333333  0.75000000  0.69370000  1.0
  Li+  Li3  1  0.91666667  0.75000000  0.69370000  1.0
  Li+  Li3  1  0.25000000  0.75000000  0.19370000  1.0
  Li+  Li3  1  0.58333333  0.75000000  0.19370000  1.0
  Li+  Li3  1  0.91666667  0.75000000  0.19370000  1.0
  Li+  Li3  1  0.08333333  0.25000000  0.30630000  1.0
  Li+  Li3  1  0.41666667  0.25000000  0.30630000  1.0
  Li+  Li3  1  0.75000000  0.25000000  0.30630000  1.0
  Li+  Li3  1  0.08333333  0.25000000  0.80630000  1.0
  Li+  Li3  1  0.41666667  0.25000000  0.80630000  1.0
  Li+  Li3  1  0.75000000  0.25000000  0.80630000  1.0
  Li+  Li4  1  0.33100000  0.97300000  0.71500000  1.0
  Li+  Li4  1  0.66433333  0.97300000  0.71500000  1.0
  Li+  Li4  1  0.99766667  0.97300000  0.71500000  1.0
  Li+  Li5  1  0.33100000  0.52700000  0.71500000  1.0
  Li+  Li5  1  0.66433333  0.52700000  0.71500000  1.0
  Li+  Li5  1  0.99766667  0.52700000  0.71500000  1.0
  Li+  Li6  1  0.32433333  0.99300000  0.21500000  1.0
  Li+  Li6  1  0.65766667  0.99300000  0.21500000  1.0
  Li+  Li6  1  0.99100000  0.99300000  0.21500000  1.0
  Li+  Li7  1  0.00233333  0.47300000  0.28500000  1.0
  Li+  Li7  1  0.33566667  0.47300000  0.28500000  1.0
  Li+  Li7  1  0.66900000  0.47300000  0.28500000  1.0
  Li+  Li8  1  0.15766667  0.00700000  0.78500000  1.0
  Li+  Li8  1  0.49100000  0.00700000  0.78500000  1.0
  Li+  Li8  1  0.82433333  0.00700000  0.78500000  1.0
  Li+  Li9  1  0.33000000  0.01400000  0.57200000  1.0
  Li+  Li9  1  0.66333333  0.01400000  0.57200000  1.0
  Li+  Li9  1  0.99666667  0.01400000  0.57200000  1.0
  Li+  Li10  1  0.00466667  0.99000000  0.07200000  1.0
  Li+  Li10  1  0.33800000  0.99000000  0.07200000  1.0
  Li+  Li10  1  0.67133333  0.99000000  0.07200000  1.0
  Li+  Li11  1  0.16200000  0.99000000  0.07200000  1.0
  Li+  Li11  1  0.49533333  0.99000000  0.07200000  1.0
  Li+  Li11  1  0.82866667  0.99000000  0.07200000  1.0
  Li+  Li12  1  0.00466667  0.51000000  0.07200000  1.0
  Li+  Li12  1  0.33800000  0.51000000  0.07200000  1.0
  Li+  Li12  1  0.67133333  0.51000000  0.07200000  1.0
  Li+  Li13  1  0.16200000  0.51000000  0.07200000  1.0
  Li+  Li13  1  0.49533333  0.51000000  0.07200000  1.0
  Li+  Li13  1  0.82866667  0.51000000  0.07200000  1.0
  Li+  Li14  1  0.16333333  0.98600000  0.42800000  1.0
  Li+  Li14  1  0.49666667  0.98600000  0.42800000  1.0
  Li+  Li14  1  0.83000000  0.98600000  0.42800000  1.0
  Li+  Li15  1  0.16333333  0.51400000  0.42800000  1.0
  Li+  Li15  1  0.49666667  0.51400000  0.42800000  1.0
  Li+  Li15  1  0.83000000  0.51400000  0.42800000  1.0
  Li+  Li16  1  0.32866667  0.49000000  0.92800000  1.0
  Li+  Li16  1  0.66200000  0.49000000  0.92800000  1.0
  Li+  Li16  1  0.99533333  0.49000000  0.92800000  1.0
  Li+  Li17  1  0.08333333  0.75000000  0.49580000  1.0
  Li+  Li17  1  0.41666667  0.75000000  0.49580000  1.0
  Li+  Li17  1  0.75000000  0.75000000  0.49580000  1.0
  Li+  Li18  1  0.25000000  0.25000000  0.99580000  1.0
  Li+  Li18  1  0.58333333  0.25000000  0.99580000  1.0
  Li+  Li18  1  0.91666667  0.25000000  0.99580000  1.0
  Li+  Li19  1  0.25000000  0.25000000  0.50420000  1.0
  Li+  Li19  1  0.58333333  0.25000000  0.50420000  1.0
  Li+  Li19  1  0.91666667  0.25000000  0.50420000  1.0
  Sn4+  Sn20  1  0.25000000  0.75000000  0.93631000  1.0
  Sn4+  Sn20  1  0.58333333  0.75000000  0.93631000  1.0
  Sn4+  Sn20  1  0.91666667  0.75000000  0.93631000  1.0
  Sn4+  Sn21  1  0.08333333  0.25000000  0.06369000  1.0
  Sn4+  Sn21  1  0.41666667  0.25000000  0.06369000  1.0
  Sn4+  Sn21  1  0.75000000  0.25000000  0.06369000  1.0
  P5+  P22  1  0.25000000  0.75000000  0.43631000  1.0
  P5+  P22  1  0.58333333  0.75000000  0.43631000  1.0
  P5+  P22  1  0.91666667  0.75000000  0.43631000  1.0
  P5+  P23  1  0.08333333  0.25000000  0.56369000  1.0
  P5+  P23  1  0.41666667  0.25000000  0.56369000  1.0
  P5+  P23  1  0.75000000  0.25000000  0.56369000  1.0
  P5+  P1  1  0.25000000  0.25000000  0.75000000  1.0
  P5+  P1  1  0.58333333  0.25000000  0.75000000  1.0
  P5+  P1  1  0.91666667  0.25000000  0.75000000  1.0
  P5+  P1  1  0.08333333  0.75000000  0.25000000  1.0
  P5+  P1  1  0.41666667  0.75000000  0.25000000  1.0
  P5+  P1  1  0.75000000  0.75000000  0.25000000  1.0
  S2-  S1  1  0.25000000  0.06023000  0.65754000  1.0
  S2-  S1  1  0.58333333  0.06023000  0.65754000  1.0
  S2-  S1  1  0.91666667  0.06023000  0.65754000  1.0
  S2-  S1  1  0.25000000  0.43977000  0.65754000  1.0
  S2-  S1  1  0.58333333  0.43977000  0.65754000  1.0
  S2-  S1  1  0.91666667  0.43977000  0.65754000  1.0
  S2-  S1  1  0.02007667  0.75000000  0.15754000  1.0
  S2-  S1  1  0.35341000  0.75000000  0.15754000  1.0
  S2-  S1  1  0.68674333  0.75000000  0.15754000  1.0
  S2-  S1  1  0.14659000  0.75000000  0.15754000  1.0
  S2-  S1  1  0.47992333  0.75000000  0.15754000  1.0
  S2-  S1  1  0.81325667  0.75000000  0.15754000  1.0
  S2-  S1  1  0.08333333  0.93977000  0.34246000  1.0
  S2-  S1  1  0.41666667  0.93977000  0.34246000  1.0
  S2-  S1  1  0.75000000  0.93977000  0.34246000  1.0
  S2-  S1  1  0.08333333  0.56023000  0.34246000  1.0
  S2-  S1  1  0.41666667  0.56023000  0.34246000  1.0
  S2-  S1  1  0.75000000  0.56023000  0.34246000  1.0
  S2-  S1  1  0.31325667  0.25000000  0.84246000  1.0
  S2-  S1  1  0.64659000  0.25000000  0.84246000  1.0
  S2-  S1  1  0.97992333  0.25000000  0.84246000  1.0
  S2-  S1  1  0.18674333  0.25000000  0.84246000  1.0
  S2-  S1  1  0.52007667  0.25000000  0.84246000  1.0
  S2-  S1  1  0.85341000  0.25000000  0.84246000  1.0
  S2-  S2  1  0.31986667  0.75000000  0.84380000  1.0
  S2-  S2  1  0.65320000  0.75000000  0.84380000  1.0
  S2-  S2  1  0.98653333  0.75000000  0.84380000  1.0
  S2-  S2  1  0.18013333  0.75000000  0.84380000  1.0
  S2-  S2  1  0.51346667  0.75000000  0.84380000  1.0
  S2-  S2  1  0.84680000  0.75000000  0.84380000  1.0
  S2-  S2  1  0.25000000  0.95960000  0.34380000  1.0
  S2-  S2  1  0.58333333  0.95960000  0.34380000  1.0
  S2-  S2  1  0.91666667  0.95960000  0.34380000  1.0
  S2-  S2  1  0.25000000  0.54040000  0.34380000  1.0
  S2-  S2  1  0.58333333  0.54040000  0.34380000  1.0
  S2-  S2  1  0.91666667  0.54040000  0.34380000  1.0
  S2-  S2  1  0.01346667  0.25000000  0.15620000  1.0
  S2-  S2  1  0.34680000  0.25000000  0.15620000  1.0
  S2-  S2  1  0.68013333  0.25000000  0.15620000  1.0
  S2-  S2  1  0.15320000  0.25000000  0.15620000  1.0
  S2-  S2  1  0.48653333  0.25000000  0.15620000  1.0
  S2-  S2  1  0.81986667  0.25000000  0.15620000  1.0
  S2-  S2  1  0.08333333  0.04040000  0.65620000  1.0
  S2-  S2  1  0.41666667  0.04040000  0.65620000  1.0
  S2-  S2  1  0.75000000  0.04040000  0.65620000  1.0
  S2-  S2  1  0.08333333  0.45960000  0.65620000  1.0
  S2-  S2  1  0.41666667  0.45960000  0.65620000  1.0
  S2-  S2  1  0.75000000  0.45960000  0.65620000  1.0
  S2-  S3  1  0.31780000  0.75000000  0.53956000  1.0
  S2-  S3  1  0.65113333  0.75000000  0.53956000  1.0
  S2-  S3  1  0.98446667  0.75000000  0.53956000  1.0
  S2-  S3  1  0.18220000  0.75000000  0.53956000  1.0
  S2-  S3  1  0.51553333  0.75000000  0.53956000  1.0
  S2-  S3  1  0.84886667  0.75000000  0.53956000  1.0
  S2-  S3  1  0.25000000  0.95340000  0.03956000  1.0
  S2-  S3  1  0.58333333  0.95340000  0.03956000  1.0
  S2-  S3  1  0.91666667  0.95340000  0.03956000  1.0
  S2-  S3  1  0.25000000  0.54660000  0.03956000  1.0
  S2-  S3  1  0.58333333  0.54660000  0.03956000  1.0
  S2-  S3  1  0.91666667  0.54660000  0.03956000  1.0
  S2-  S3  1  0.01553333  0.25000000  0.46044000  1.0
  S2-  S3  1  0.34886667  0.25000000  0.46044000  1.0
  S2-  S3  1  0.68220000  0.25000000  0.46044000  1.0
  S2-  S3  1  0.15113333  0.25000000  0.46044000  1.0
  S2-  S3  1  0.48446667  0.25000000  0.46044000  1.0
  S2-  S3  1  0.81780000  0.25000000  0.46044000  1.0
  S2-  S3  1  0.08333333  0.04660000  0.96044000  1.0
  S2-  S3  1  0.41666667  0.04660000  0.96044000  1.0
  S2-  S3  1  0.75000000  0.04660000  0.96044000  1.0
  S2-  S3  1  0.08333333  0.45340000  0.96044000  1.0
  S2-  S3  1  0.41666667  0.45340000  0.96044000  1.0
  S2-  S3  1  0.75000000  0.45340000  0.96044000  1.0
