# generated using pymatgen
data_Li31SnSb9S40
_symmetry_space_group_name_H-M   'P 1'
_cell_length_a   7.96553000
_cell_length_b   31.88745000
_cell_length_c   13.71832000
_cell_angle_alpha   90.00000000
_cell_angle_beta   90.00000000
_cell_angle_gamma   90.00000000
_symmetry_Int_Tables_number   1
_chemical_formula_structural   Li31SnSb9S40
_chemical_formula_sum   'Li62 Sn2 Sb18 S80'
_cell_volume   3484.45931055
_cell_formula_units_Z   2
loop_
 _symmetry_equiv_pos_site_id
 _symmetry_equiv_pos_as_xyz
  1  'x, y, z'
loop_
 _atom_type_symbol
 _atom_type_oxidation_number
  Li+  1.0
  Sn4+  4.0
  Sb5+  5.0
  S2-  -2.0
loop_
 _atom_site_type_symbol
 _atom_site_label
 _atom_site_symmetry_multiplicity
 _atom_site_fract_x
 _atom_site_fract_y
 _atom_site_fract_z
 _atom_site_occupancy
  Li+  Li0  1  0.25470000  0.89914000  0.66255000  1.0
  Li+  Li1  1  0.25470000  0.89914000  0.16255000  1.0
  Li+  Li2  1  0.25372933  0.70038645  0.66048215  1.0
  Li+  Li3  1  0.25470000  0.69914000  0.16255000  1.0
  Li+  Li4  1  0.25649200  0.49691870  0.66718107  1.0
  Li+  Li5  1  0.25470000  0.49914000  0.16255000  1.0
  Li+  Li6  1  0.25470000  0.29914000  0.66255000  1.0
  Li+  Li7  1  0.25470000  0.29914000  0.16255000  1.0
  Li+  Li8  1  0.25470000  0.09914000  0.66255000  1.0
  Li+  Li9  1  0.25070791  0.09611456  0.16471493  1.0
  Li+  Li10  1  0.24530000  0.99914000  0.33745000  1.0
  Li+  Li11  1  0.24530000  0.99914000  0.83745000  1.0
  Li+  Li12  1  0.24530000  0.79914000  0.33745000  1.0
  Li+  Li13  1  0.24767794  0.80185050  0.83427480  1.0
  Li+  Li14  1  0.24530000  0.59914000  0.33745000  1.0
  Li+  Li15  1  0.24530000  0.59914000  0.83745000  1.0
  Li+  Li16  1  0.24980449  0.40080027  0.33223607  1.0
  Li+  Li17  1  0.24530000  0.39914000  0.83745000  1.0
  Li+  Li18  1  0.24530000  0.19914000  0.33745000  1.0
  Li+  Li19  1  0.24530000  0.19914000  0.83745000  1.0
  Li+  Li20  1  0.75796283  0.99687213  0.34116376  1.0
  Li+  Li21  1  0.75470000  0.99914000  0.83745000  1.0
  Li+  Li22  1  0.75316534  0.79846783  0.33477645  1.0
  Li+  Li23  1  0.75470000  0.79914000  0.83745000  1.0
  Li+  Li24  1  0.75470000  0.59914000  0.33745000  1.0
  Li+  Li25  1  0.75470000  0.59914000  0.83745000  1.0
  Li+  Li26  1  0.75470000  0.39914000  0.33745000  1.0
  Li+  Li27  1  0.75470000  0.39914000  0.83745000  1.0
  Li+  Li28  1  0.75541053  0.20044117  0.33590052  1.0
  Li+  Li29  1  0.75341348  0.20076626  0.83547723  1.0
  Li+  Li30  1  0.74530000  0.89914000  0.66255000  1.0
  Li+  Li31  1  0.74530000  0.89914000  0.16255000  1.0
  Li+  Li32  1  0.74530000  0.69914000  0.66255000  1.0
  Li+  Li33  1  0.74530000  0.69914000  0.16255000  1.0
  Li+  Li34  1  0.74861038  0.49826017  0.66292824  1.0
  Li+  Li35  1  0.75153810  0.49762693  0.16490025  1.0
  Li+  Li36  1  0.74600122  0.29679165  0.66265275  1.0
  Li+  Li37  1  0.74530000  0.29914000  0.16255000  1.0
  Li+  Li38  1  0.74530000  0.09914000  0.66255000  1.0
  Li+  Li39  1  0.74530000  0.09914000  0.16255000  1.0
  Li+  Li40  1  0.00000000  0.89680000  0.42300000  1.0
  Li+  Li41  1  0.00000000  0.89680000  0.92300000  1.0
  Li+  Li42  1  0.00000000  0.69680000  0.42300000  1.0
  Li+  Li43  1  0.00000000  0.69680000  0.92300000  1.0
  Li+  Li44  1  0.00000000  0.49680000  0.42300000  1.0
  Li+  Li45  1  0.00000000  0.49680000  0.92300000  1.0
  Li+  Li46  1  0.00000000  0.29680000  0.42300000  1.0
  Li+  Li47  1  0.00000000  0.29680000  0.92300000  1.0
  Li+  Li48  1  0.00013823  0.09714666  0.42588237  1.0
  Li+  Li49  1  0.00000000  0.09680000  0.92300000  1.0
  Li+  Li50  1  0.50000000  0.99680000  0.57700000  1.0
  Li+  Li51  1  0.49741796  0.99701064  0.07700187  1.0
  Li+  Li52  1  0.50000000  0.79680000  0.57700000  1.0
  Li+  Li53  1  0.50043098  0.79612552  0.08243603  1.0
  Li+  Li54  1  0.49956511  0.59773869  0.57892091  1.0
  Li+  Li55  1  0.49994260  0.60163336  0.07673976  1.0
  Li+  Li56  1  0.50000000  0.39680000  0.57700000  1.0
  Li+  Li57  1  0.50358122  0.39600147  0.08065306  1.0
  Li+  Li58  1  0.49908325  0.20185645  0.57401669  1.0
  Li+  Li59  1  0.50000000  0.19680000  0.07700000  1.0
  Li+  Li60  1  0.00000000  0.14120000  0.74100000  1.0
  Li+  Li61  1  0.00000000  0.14120000  0.24100000  1.0
  Sn4+  Sn62  1  0.00000000  0.20000000  0.58698500  1.0
  Sn4+  Sn63  1  0.00000000  0.20000000  0.08698500  1.0
  Sb5+  Sb64  1  0.00000000  0.00000000  0.58698500  1.0
  Sb5+  Sb65  1  0.00000000  0.00000000  0.08698500  1.0
  Sb5+  Sb66  1  0.00000000  0.80000000  0.58698500  1.0
  Sb5+  Sb67  1  0.00000000  0.80000000  0.08698500  1.0
  Sb5+  Sb68  1  0.00000000  0.60000000  0.58698500  1.0
  Sb5+  Sb69  1  0.99789840  0.59317077  0.08537487  1.0
  Sb5+  Sb70  1  0.00449301  0.39577998  0.58582012  1.0
  Sb5+  Sb71  1  0.00135831  0.39958355  0.08625686  1.0
  Sb5+  Sb72  1  0.49830181  0.90105431  0.41269076  1.0
  Sb5+  Sb73  1  0.50000000  0.90000000  0.91301500  1.0
  Sb5+  Sb74  1  0.50000000  0.70000000  0.41301500  1.0
  Sb5+  Sb75  1  0.50000000  0.70000000  0.91301500  1.0
  Sb5+  Sb76  1  0.50000000  0.50000000  0.41301500  1.0
  Sb5+  Sb77  1  0.50000000  0.50000000  0.91301500  1.0
  Sb5+  Sb78  1  0.50000000  0.30000000  0.41301500  1.0
  Sb5+  Sb79  1  0.50000000  0.30000000  0.91301500  1.0
  Sb5+  Sb80  1  0.50000000  0.10000000  0.41301500  1.0
  Sb5+  Sb81  1  0.50000000  0.10000000  0.91301500  1.0
  S2-  S82  1  0.23950000  0.97638000  0.66625000  1.0
  S2-  S83  1  0.23950000  0.97638000  0.16625000  1.0
  S2-  S84  1  0.23950000  0.77638000  0.66625000  1.0
  S2-  S85  1  0.24016613  0.77695094  0.17090105  1.0
  S2-  S86  1  0.23950000  0.57638000  0.66625000  1.0
  S2-  S87  1  0.23728366  0.57664597  0.16690097  1.0
  S2-  S88  1  0.23425272  0.37614752  0.66524612  1.0
  S2-  S89  1  0.23950000  0.37638000  0.16625000  1.0
  S2-  S90  1  0.23950000  0.17638000  0.66625000  1.0
  S2-  S91  1  0.23950000  0.17638000  0.16625000  1.0
  S2-  S92  1  0.26050000  0.87638000  0.33375000  1.0
  S2-  S93  1  0.26160097  0.87706608  0.83330837  1.0
  S2-  S94  1  0.26050000  0.67638000  0.33375000  1.0
  S2-  S95  1  0.26050000  0.67638000  0.83375000  1.0
  S2-  S96  1  0.26050000  0.47638000  0.33375000  1.0
  S2-  S97  1  0.26050000  0.47638000  0.83375000  1.0
  S2-  S98  1  0.26166944  0.27623988  0.33333333  1.0
  S2-  S99  1  0.26050000  0.27638000  0.83375000  1.0
  S2-  S100  1  0.26050000  0.07638000  0.33375000  1.0
  S2-  S101  1  0.26050000  0.07638000  0.83375000  1.0
  S2-  S102  1  0.73537455  0.87247397  0.33364933  1.0
  S2-  S103  1  0.73950000  0.87638000  0.83375000  1.0
  S2-  S104  1  0.73950000  0.67638000  0.33375000  1.0
  S2-  S105  1  0.73950000  0.67638000  0.83375000  1.0
  S2-  S106  1  0.73950000  0.47638000  0.33375000  1.0
  S2-  S107  1  0.73719434  0.47312339  0.83490036  1.0
  S2-  S108  1  0.73950000  0.27638000  0.33375000  1.0
  S2-  S109  1  0.73950000  0.27638000  0.83375000  1.0
  S2-  S110  1  0.73950000  0.07638000  0.33375000  1.0
  S2-  S111  1  0.74172020  0.07727627  0.83262284  1.0
  S2-  S112  1  0.76050000  0.97638000  0.66625000  1.0
  S2-  S113  1  0.76050000  0.97638000  0.16625000  1.0
  S2-  S114  1  0.76214826  0.77718699  0.66408228  1.0
  S2-  S115  1  0.76050000  0.77638000  0.16625000  1.0
  S2-  S116  1  0.76050000  0.57638000  0.66625000  1.0
  S2-  S117  1  0.76301928  0.57840140  0.16539840  1.0
  S2-  S118  1  0.76050000  0.37638000  0.66625000  1.0
  S2-  S119  1  0.76050000  0.37638000  0.16625000  1.0
  S2-  S120  1  0.76050000  0.17638000  0.66625000  1.0
  S2-  S121  1  0.76050000  0.17638000  0.16625000  1.0
  S2-  S122  1  0.00122485  0.97402789  0.42557895  1.0
  S2-  S123  1  0.00108381  0.97563808  0.93169687  1.0
  S2-  S124  1  0.00000000  0.77606000  0.42785000  1.0
  S2-  S125  1  0.00000000  0.77606000  0.92785000  1.0
  S2-  S126  1  0.99615058  0.57295606  0.42861693  1.0
  S2-  S127  1  0.00000000  0.57606000  0.92785000  1.0
  S2-  S128  1  0.00000000  0.37606000  0.42785000  1.0
  S2-  S129  1  0.00000000  0.37606000  0.92785000  1.0
  S2-  S130  1  0.00216849  0.17624708  0.42681248  1.0
  S2-  S131  1  0.00000000  0.17606000  0.92785000  1.0
  S2-  S132  1  0.50000000  0.87606000  0.57215000  1.0
  S2-  S133  1  0.50000000  0.87606000  0.07215000  1.0
  S2-  S134  1  0.50000000  0.67606000  0.57215000  1.0
  S2-  S135  1  0.50000000  0.67606000  0.07215000  1.0
  S2-  S136  1  0.50000000  0.47606000  0.57215000  1.0
  S2-  S137  1  0.50000000  0.47606000  0.07215000  1.0
  S2-  S138  1  0.50000000  0.27606000  0.57215000  1.0
  S2-  S139  1  0.50000000  0.27606000  0.07215000  1.0
  S2-  S140  1  0.50120752  0.07461518  0.57686232  1.0
  S2-  S141  1  0.50000000  0.07606000  0.07215000  1.0
  S2-  S142  1  0.00000000  0.87318000  0.58990000  1.0
  S2-  S143  1  0.00000000  0.87318000  0.08990000  1.0
  S2-  S144  1  0.00000000  0.67318000  0.58990000  1.0
  S2-  S145  1  0.00000000  0.67318000  0.08990000  1.0
  S2-  S146  1  0.00000000  0.47318000  0.58990000  1.0
  S2-  S147  1  0.00000000  0.47318000  0.08990000  1.0
  S2-  S148  1  0.00000000  0.27318000  0.58990000  1.0
  S2-  S149  1  0.99928583  0.26885035  0.08705334  1.0
  S2-  S150  1  0.00000000  0.07318000  0.58990000  1.0
  S2-  S151  1  0.00000000  0.07318000  0.08990000  1.0
  S2-  S152  1  0.50000000  0.97318000  0.41010000  1.0
  S2-  S153  1  0.50000000  0.97318000  0.91010000  1.0
  S2-  S154  1  0.50000000  0.77318000  0.41010000  1.0
  S2-  S155  1  0.50000000  0.77318000  0.91010000  1.0
  S2-  S156  1  0.50000000  0.57318000  0.41010000  1.0
  S2-  S157  1  0.50000000  0.57318000  0.91010000  1.0
  S2-  S158  1  0.50062913  0.37510579  0.41338889  1.0
  S2-  S159  1  0.50000000  0.37318000  0.91010000  1.0
  S2-  S160  1  0.50000000  0.17318000  0.41010000  1.0
  S2-  S161  1  0.50000000  0.17318000  0.91010000  1.0
