# generated using pymatgen
data_Li31SnSb9S40
_symmetry_space_group_name_H-M   'P 1'
_cell_length_a   13.62583564
_cell_length_b   7.91182904
_cell_length_c   31.67247539
_cell_angle_alpha   90.00000000
_cell_angle_beta   90.00000000
_cell_angle_gamma   90.00000000
_symmetry_Int_Tables_number   1
_chemical_formula_structural   Li31SnSb9S40
_chemical_formula_sum   'Li62 Sn2 Sb18 S80'
_cell_volume   3414.46014457
_cell_formula_units_Z   2
loop_
 _symmetry_equiv_pos_site_id
 _symmetry_equiv_pos_as_xyz
  1  'x, y, z'
loop_
 _atom_type_symbol
 _atom_type_oxidation_number
  Li+  1.0
  Sn4+  4.0
  Sb5+  5.0
  S2-  -2.0
loop_
 _atom_site_type_symbol
 _atom_site_label
 _atom_site_symmetry_multiplicity
 _atom_site_fract_x
 _atom_site_fract_y
 _atom_site_fract_z
 _atom_site_occupancy
  Li+  Li0  1  0.91255000  0.41196667  0.10086000  1.0
  Li+  Li1  1  0.41255000  0.41196667  0.10086000  1.0
  Li+  Li2  1  0.91255000  0.41196667  0.30086000  1.0
  Li+  Li3  1  0.41255000  0.41196667  0.30086000  1.0
  Li+  Li4  1  0.91255000  0.41196667  0.50086000  1.0
  Li+  Li5  1  0.41255000  0.41196667  0.50086000  1.0
  Li+  Li6  1  0.91255000  0.41196667  0.70086000  1.0
  Li+  Li7  1  0.41255000  0.41196667  0.70086000  1.0
  Li+  Li8  1  0.91255000  0.41196667  0.90086000  1.0
  Li+  Li9  1  0.41255000  0.41196667  0.90086000  1.0
  Li+  Li10  1  0.58745000  0.42136667  0.00086000  1.0
  Li+  Li11  1  0.08745000  0.42136667  0.00086000  1.0
  Li+  Li12  1  0.58745000  0.42136667  0.20086000  1.0
  Li+  Li13  1  0.08745000  0.42136667  0.20086000  1.0
  Li+  Li14  1  0.58745000  0.42136667  0.40086000  1.0
  Li+  Li15  1  0.08745000  0.42136667  0.40086000  1.0
  Li+  Li16  1  0.58745000  0.42136667  0.60086000  1.0
  Li+  Li17  1  0.08745000  0.42136667  0.60086000  1.0
  Li+  Li18  1  0.58745000  0.42136667  0.80086000  1.0
  Li+  Li19  1  0.08745000  0.42136667  0.80086000  1.0
  Li+  Li20  1  0.58745000  0.91196667  0.00086000  1.0
  Li+  Li21  1  0.08745000  0.91196667  0.00086000  1.0
  Li+  Li22  1  0.58745000  0.91196667  0.20086000  1.0
  Li+  Li23  1  0.08745000  0.91196667  0.20086000  1.0
  Li+  Li24  1  0.58745000  0.91196667  0.40086000  1.0
  Li+  Li25  1  0.08745000  0.91196667  0.40086000  1.0
  Li+  Li26  1  0.58745000  0.91196667  0.60086000  1.0
  Li+  Li27  1  0.08745000  0.91196667  0.60086000  1.0
  Li+  Li28  1  0.58745000  0.91196667  0.80086000  1.0
  Li+  Li29  1  0.08745000  0.91196667  0.80086000  1.0
  Li+  Li30  1  0.91255000  0.92136667  0.10086000  1.0
  Li+  Li31  1  0.41255000  0.92136667  0.10086000  1.0
  Li+  Li32  1  0.91255000  0.92136667  0.30086000  1.0
  Li+  Li33  1  0.41255000  0.92136667  0.30086000  1.0
  Li+  Li34  1  0.91255000  0.92136667  0.50086000  1.0
  Li+  Li35  1  0.41255000  0.92136667  0.50086000  1.0
  Li+  Li36  1  0.91255000  0.92136667  0.70086000  1.0
  Li+  Li37  1  0.41255000  0.92136667  0.70086000  1.0
  Li+  Li38  1  0.91255000  0.92136667  0.90086000  1.0
  Li+  Li39  1  0.41255000  0.92136667  0.90086000  1.0
  Li+  Li40  1  0.67300000  0.66666667  0.10320000  1.0
  Li+  Li41  1  0.17300000  0.66666667  0.10320000  1.0
  Li+  Li42  1  0.67300000  0.66666667  0.30320000  1.0
  Li+  Li43  1  0.17300000  0.66666667  0.30320000  1.0
  Li+  Li44  1  0.67300000  0.66666667  0.50320000  1.0
  Li+  Li45  1  0.17300000  0.66666667  0.50320000  1.0
  Li+  Li46  1  0.67300000  0.66666667  0.70320000  1.0
  Li+  Li47  1  0.17300000  0.66666667  0.70320000  1.0
  Li+  Li48  1  0.67300000  0.66666667  0.90320000  1.0
  Li+  Li49  1  0.17300000  0.66666667  0.90320000  1.0
  Li+  Li50  1  0.82700000  0.16666667  0.00320000  1.0
  Li+  Li51  1  0.32700000  0.16666667  0.00320000  1.0
  Li+  Li52  1  0.82700000  0.16666667  0.20320000  1.0
  Li+  Li53  1  0.32700000  0.16666667  0.20320000  1.0
  Li+  Li54  1  0.82700000  0.16666667  0.40320000  1.0
  Li+  Li55  1  0.32700000  0.16666667  0.40320000  1.0
  Li+  Li56  1  0.82700000  0.16666667  0.60320000  1.0
  Li+  Li57  1  0.32700000  0.16666667  0.60320000  1.0
  Li+  Li58  1  0.82700000  0.16666667  0.80320000  1.0
  Li+  Li59  1  0.32700000  0.16666667  0.80320000  1.0
  Li+  Li60  1  0.99100000  0.66666667  0.85880000  1.0
  Li+  Li61  1  0.49100000  0.66666667  0.85880000  1.0
  Sn4+  Sn62  1  0.83698500  0.66666667  0.80000000  1.0
  Sn4+  Sn63  1  0.33698500  0.66666667  0.80000000  1.0
  Sb5+  Sb64  1  0.83698500  0.66666667  0.00000000  1.0
  Sb5+  Sb65  1  0.33698500  0.66666667  0.00000000  1.0
  Sb5+  Sb66  1  0.83698500  0.66666667  0.20000000  1.0
  Sb5+  Sb67  1  0.33698500  0.66666667  0.20000000  1.0
  Sb5+  Sb68  1  0.83698500  0.66666667  0.40000000  1.0
  Sb5+  Sb69  1  0.33698500  0.66666667  0.40000000  1.0
  Sb5+  Sb70  1  0.83698500  0.66666667  0.60000000  1.0
  Sb5+  Sb71  1  0.33698500  0.66666667  0.60000000  1.0
  Sb5+  Sb72  1  0.66301500  0.16666667  0.10000000  1.0
  Sb5+  Sb73  1  0.16301500  0.16666667  0.10000000  1.0
  Sb5+  Sb74  1  0.66301500  0.16666667  0.30000000  1.0
  Sb5+  Sb75  1  0.16301500  0.16666667  0.30000000  1.0
  Sb5+  Sb76  1  0.66301500  0.16666667  0.50000000  1.0
  Sb5+  Sb77  1  0.16301500  0.16666667  0.50000000  1.0
  Sb5+  Sb78  1  0.66301500  0.16666667  0.70000000  1.0
  Sb5+  Sb79  1  0.16301500  0.16666667  0.70000000  1.0
  Sb5+  Sb80  1  0.66301500  0.16666667  0.90000000  1.0
  Sb5+  Sb81  1  0.16301500  0.16666667  0.90000000  1.0
  S2-  S82  1  0.91625000  0.42716667  0.02362000  1.0
  S2-  S83  1  0.41625000  0.42716667  0.02362000  1.0
  S2-  S84  1  0.91625000  0.42716667  0.22362000  1.0
  S2-  S85  1  0.41625000  0.42716667  0.22362000  1.0
  S2-  S86  1  0.91625000  0.42716667  0.42362000  1.0
  S2-  S87  1  0.41625000  0.42716667  0.42362000  1.0
  S2-  S88  1  0.91625000  0.42716667  0.62362000  1.0
  S2-  S89  1  0.41625000  0.42716667  0.62362000  1.0
  S2-  S90  1  0.91625000  0.42716667  0.82362000  1.0
  S2-  S91  1  0.41625000  0.42716667  0.82362000  1.0
  S2-  S92  1  0.58375000  0.40616667  0.12362000  1.0
  S2-  S93  1  0.08375000  0.40616667  0.12362000  1.0
  S2-  S94  1  0.58375000  0.40616667  0.32362000  1.0
  S2-  S95  1  0.08375000  0.40616667  0.32362000  1.0
  S2-  S96  1  0.58375000  0.40616667  0.52362000  1.0
  S2-  S97  1  0.08375000  0.40616667  0.52362000  1.0
  S2-  S98  1  0.58375000  0.40616667  0.72362000  1.0
  S2-  S99  1  0.08375000  0.40616667  0.72362000  1.0
  S2-  S100  1  0.58375000  0.40616667  0.92362000  1.0
  S2-  S101  1  0.08375000  0.40616667  0.92362000  1.0
  S2-  S102  1  0.58375000  0.92716667  0.12362000  1.0
  S2-  S103  1  0.08375000  0.92716667  0.12362000  1.0
  S2-  S104  1  0.58375000  0.92716667  0.32362000  1.0
  S2-  S105  1  0.08375000  0.92716667  0.32362000  1.0
  S2-  S106  1  0.58375000  0.92716667  0.52362000  1.0
  S2-  S107  1  0.08375000  0.92716667  0.52362000  1.0
  S2-  S108  1  0.58375000  0.92716667  0.72362000  1.0
  S2-  S109  1  0.08375000  0.92716667  0.72362000  1.0
  S2-  S110  1  0.58375000  0.92716667  0.92362000  1.0
  S2-  S111  1  0.08375000  0.92716667  0.92362000  1.0
  S2-  S112  1  0.91625000  0.90616667  0.02362000  1.0
  S2-  S113  1  0.41625000  0.90616667  0.02362000  1.0
  S2-  S114  1  0.91625000  0.90616667  0.22362000  1.0
  S2-  S115  1  0.41625000  0.90616667  0.22362000  1.0
  S2-  S116  1  0.91625000  0.90616667  0.42362000  1.0
  S2-  S117  1  0.41625000  0.90616667  0.42362000  1.0
  S2-  S118  1  0.91625000  0.90616667  0.62362000  1.0
  S2-  S119  1  0.41625000  0.90616667  0.62362000  1.0
  S2-  S120  1  0.91625000  0.90616667  0.82362000  1.0
  S2-  S121  1  0.41625000  0.90616667  0.82362000  1.0
  S2-  S122  1  0.67785000  0.66666667  0.02394000  1.0
  S2-  S123  1  0.17785000  0.66666667  0.02394000  1.0
  S2-  S124  1  0.67785000  0.66666667  0.22394000  1.0
  S2-  S125  1  0.17785000  0.66666667  0.22394000  1.0
  S2-  S126  1  0.67785000  0.66666667  0.42394000  1.0
  S2-  S127  1  0.17785000  0.66666667  0.42394000  1.0
  S2-  S128  1  0.67785000  0.66666667  0.62394000  1.0
  S2-  S129  1  0.17785000  0.66666667  0.62394000  1.0
  S2-  S130  1  0.67785000  0.66666667  0.82394000  1.0
  S2-  S131  1  0.17785000  0.66666667  0.82394000  1.0
  S2-  S132  1  0.82215000  0.16666667  0.12394000  1.0
  S2-  S133  1  0.32215000  0.16666667  0.12394000  1.0
  S2-  S134  1  0.82215000  0.16666667  0.32394000  1.0
  S2-  S135  1  0.32215000  0.16666667  0.32394000  1.0
  S2-  S136  1  0.82215000  0.16666667  0.52394000  1.0
  S2-  S137  1  0.32215000  0.16666667  0.52394000  1.0
  S2-  S138  1  0.82215000  0.16666667  0.72394000  1.0
  S2-  S139  1  0.32215000  0.16666667  0.72394000  1.0
  S2-  S140  1  0.82215000  0.16666667  0.92394000  1.0
  S2-  S141  1  0.32215000  0.16666667  0.92394000  1.0
  S2-  S142  1  0.83990000  0.66666667  0.12682000  1.0
  S2-  S143  1  0.33990000  0.66666667  0.12682000  1.0
  S2-  S144  1  0.83990000  0.66666667  0.32682000  1.0
  S2-  S145  1  0.33990000  0.66666667  0.32682000  1.0
  S2-  S146  1  0.83990000  0.66666667  0.52682000  1.0
  S2-  S147  1  0.33990000  0.66666667  0.52682000  1.0
  S2-  S148  1  0.83990000  0.66666667  0.72682000  1.0
  S2-  S149  1  0.33990000  0.66666667  0.72682000  1.0
  S2-  S150  1  0.83990000  0.66666667  0.92682000  1.0
  S2-  S151  1  0.33990000  0.66666667  0.92682000  1.0
  S2-  S152  1  0.66010000  0.16666667  0.02682000  1.0
  S2-  S153  1  0.16010000  0.16666667  0.02682000  1.0
  S2-  S154  1  0.66010000  0.16666667  0.22682000  1.0
  S2-  S155  1  0.16010000  0.16666667  0.22682000  1.0
  S2-  S156  1  0.66010000  0.16666667  0.42682000  1.0
  S2-  S157  1  0.16010000  0.16666667  0.42682000  1.0
  S2-  S158  1  0.66010000  0.16666667  0.62682000  1.0
  S2-  S159  1  0.16010000  0.16666667  0.62682000  1.0
  S2-  S160  1  0.66010000  0.16666667  0.82682000  1.0
  S2-  S161  1  0.16010000  0.16666667  0.82682000  1.0
