# generated using pymatgen
data_Li31SnSb9S40
_symmetry_space_group_name_H-M   'P 1'
_cell_length_a   7.96553000
_cell_length_b   13.71832000
_cell_length_c   31.88745000
_cell_angle_alpha   90.00000000
_cell_angle_beta   90.00000000
_cell_angle_gamma   90.00000000
_symmetry_Int_Tables_number   1
_chemical_formula_structural   Li31SnSb9S40
_chemical_formula_sum   'Li62 Sn2 Sb18 S80'
_cell_volume   3484.45931055
_cell_formula_units_Z   2
loop_
 _symmetry_equiv_pos_site_id
 _symmetry_equiv_pos_as_xyz
  1  'x, y, z'
loop_
 _atom_type_symbol
 _atom_type_oxidation_number
  Li+  1.0
  Sn4+  4.0
  Sb5+  5.0
  S2-  -2.0
loop_
 _atom_site_type_symbol
 _atom_site_label
 _atom_site_symmetry_multiplicity
 _atom_site_fract_x
 _atom_site_fract_y
 _atom_site_fract_z
 _atom_site_occupancy
  Li+  Li1  1  0.25470000  0.08745000  0.10086000  1.0
  Li+  Li1  1  0.25470000  0.58745000  0.10086000  1.0
  Li+  Li1  1  0.25470000  0.08745000  0.30086000  1.0
  Li+  Li1  1  0.25470000  0.58745000  0.30086000  1.0
  Li+  Li1  1  0.25470000  0.08745000  0.50086000  1.0
  Li+  Li1  1  0.25470000  0.58745000  0.50086000  1.0
  Li+  Li1  1  0.25470000  0.08745000  0.70086000  1.0
  Li+  Li1  1  0.25470000  0.58745000  0.70086000  1.0
  Li+  Li1  1  0.25470000  0.08745000  0.90086000  1.0
  Li+  Li1  1  0.25470000  0.58745000  0.90086000  1.0
  Li+  Li1  1  0.24530000  0.41255000  0.00086000  1.0
  Li+  Li1  1  0.24530000  0.91255000  0.00086000  1.0
  Li+  Li1  1  0.24530000  0.41255000  0.20086000  1.0
  Li+  Li1  1  0.24530000  0.91255000  0.20086000  1.0
  Li+  Li1  1  0.24530000  0.41255000  0.40086000  1.0
  Li+  Li1  1  0.24530000  0.91255000  0.40086000  1.0
  Li+  Li1  1  0.24530000  0.41255000  0.60086000  1.0
  Li+  Li1  1  0.24530000  0.91255000  0.60086000  1.0
  Li+  Li1  1  0.24530000  0.41255000  0.80086000  1.0
  Li+  Li1  1  0.24530000  0.91255000  0.80086000  1.0
  Li+  Li1  1  0.75470000  0.41255000  0.00086000  1.0
  Li+  Li1  1  0.75470000  0.91255000  0.00086000  1.0
  Li+  Li1  1  0.75470000  0.41255000  0.20086000  1.0
  Li+  Li1  1  0.75470000  0.91255000  0.20086000  1.0
  Li+  Li1  1  0.75470000  0.41255000  0.40086000  1.0
  Li+  Li1  1  0.75470000  0.91255000  0.40086000  1.0
  Li+  Li1  1  0.75470000  0.41255000  0.60086000  1.0
  Li+  Li1  1  0.75470000  0.91255000  0.60086000  1.0
  Li+  Li1  1  0.75470000  0.41255000  0.80086000  1.0
  Li+  Li1  1  0.75470000  0.91255000  0.80086000  1.0
  Li+  Li1  1  0.74530000  0.08745000  0.10086000  1.0
  Li+  Li1  1  0.74530000  0.58745000  0.10086000  1.0
  Li+  Li1  1  0.74530000  0.08745000  0.30086000  1.0
  Li+  Li1  1  0.74530000  0.58745000  0.30086000  1.0
  Li+  Li1  1  0.74530000  0.08745000  0.50086000  1.0
  Li+  Li1  1  0.74530000  0.58745000  0.50086000  1.0
  Li+  Li1  1  0.74530000  0.08745000  0.70086000  1.0
  Li+  Li1  1  0.74530000  0.58745000  0.70086000  1.0
  Li+  Li1  1  0.74530000  0.08745000  0.90086000  1.0
  Li+  Li1  1  0.74530000  0.58745000  0.90086000  1.0
  Li+  Li2  1  0.00000000  0.32700000  0.10320000  1.0
  Li+  Li2  1  0.00000000  0.82700000  0.10320000  1.0
  Li+  Li2  1  0.00000000  0.32700000  0.30320000  1.0
  Li+  Li2  1  0.00000000  0.82700000  0.30320000  1.0
  Li+  Li2  1  0.00000000  0.32700000  0.50320000  1.0
  Li+  Li2  1  0.00000000  0.82700000  0.50320000  1.0
  Li+  Li2  1  0.00000000  0.32700000  0.70320000  1.0
  Li+  Li2  1  0.00000000  0.82700000  0.70320000  1.0
  Li+  Li2  1  0.00000000  0.32700000  0.90320000  1.0
  Li+  Li2  1  0.00000000  0.82700000  0.90320000  1.0
  Li+  Li2  1  0.50000000  0.17300000  0.00320000  1.0
  Li+  Li2  1  0.50000000  0.67300000  0.00320000  1.0
  Li+  Li2  1  0.50000000  0.17300000  0.20320000  1.0
  Li+  Li2  1  0.50000000  0.67300000  0.20320000  1.0
  Li+  Li2  1  0.50000000  0.17300000  0.40320000  1.0
  Li+  Li2  1  0.50000000  0.67300000  0.40320000  1.0
  Li+  Li2  1  0.50000000  0.17300000  0.60320000  1.0
  Li+  Li2  1  0.50000000  0.67300000  0.60320000  1.0
  Li+  Li2  1  0.50000000  0.17300000  0.80320000  1.0
  Li+  Li2  1  0.50000000  0.67300000  0.80320000  1.0
  Li+  Li30  1  0.00000000  0.00900000  0.85880000  1.0
  Li+  Li30  1  0.00000000  0.50900000  0.85880000  1.0
  Sn4+  Sn31  1  0.00000000  0.16301500  0.80000000  1.0
  Sn4+  Sn31  1  0.00000000  0.66301500  0.80000000  1.0
  Sb5+  Sb32  1  0.00000000  0.16301500  0.00000000  1.0
  Sb5+  Sb32  1  0.00000000  0.66301500  0.00000000  1.0
  Sb5+  Sb33  1  0.00000000  0.16301500  0.20000000  1.0
  Sb5+  Sb33  1  0.00000000  0.66301500  0.20000000  1.0
  Sb5+  Sb34  1  0.00000000  0.16301500  0.40000000  1.0
  Sb5+  Sb34  1  0.00000000  0.66301500  0.40000000  1.0
  Sb5+  Sb35  1  0.00000000  0.16301500  0.60000000  1.0
  Sb5+  Sb35  1  0.00000000  0.66301500  0.60000000  1.0
  Sb5+  Sb36  1  0.50000000  0.33698500  0.10000000  1.0
  Sb5+  Sb36  1  0.50000000  0.83698500  0.10000000  1.0
  Sb5+  Sb37  1  0.50000000  0.33698500  0.30000000  1.0
  Sb5+  Sb37  1  0.50000000  0.83698500  0.30000000  1.0
  Sb5+  Sb38  1  0.50000000  0.33698500  0.50000000  1.0
  Sb5+  Sb38  1  0.50000000  0.83698500  0.50000000  1.0
  Sb5+  Sb39  1  0.50000000  0.33698500  0.70000000  1.0
  Sb5+  Sb39  1  0.50000000  0.83698500  0.70000000  1.0
  Sb5+  Sb40  1  0.50000000  0.33698500  0.90000000  1.0
  Sb5+  Sb40  1  0.50000000  0.83698500  0.90000000  1.0
  S2-  S1  1  0.23950000  0.08375000  0.02362000  1.0
  S2-  S1  1  0.23950000  0.58375000  0.02362000  1.0
  S2-  S1  1  0.23950000  0.08375000  0.22362000  1.0
  S2-  S1  1  0.23950000  0.58375000  0.22362000  1.0
  S2-  S1  1  0.23950000  0.08375000  0.42362000  1.0
  S2-  S1  1  0.23950000  0.58375000  0.42362000  1.0
  S2-  S1  1  0.23950000  0.08375000  0.62362000  1.0
  S2-  S1  1  0.23950000  0.58375000  0.62362000  1.0
  S2-  S1  1  0.23950000  0.08375000  0.82362000  1.0
  S2-  S1  1  0.23950000  0.58375000  0.82362000  1.0
  S2-  S1  1  0.26050000  0.41625000  0.12362000  1.0
  S2-  S1  1  0.26050000  0.91625000  0.12362000  1.0
  S2-  S1  1  0.26050000  0.41625000  0.32362000  1.0
  S2-  S1  1  0.26050000  0.91625000  0.32362000  1.0
  S2-  S1  1  0.26050000  0.41625000  0.52362000  1.0
  S2-  S1  1  0.26050000  0.91625000  0.52362000  1.0
  S2-  S1  1  0.26050000  0.41625000  0.72362000  1.0
  S2-  S1  1  0.26050000  0.91625000  0.72362000  1.0
  S2-  S1  1  0.26050000  0.41625000  0.92362000  1.0
  S2-  S1  1  0.26050000  0.91625000  0.92362000  1.0
  S2-  S1  1  0.73950000  0.41625000  0.12362000  1.0
  S2-  S1  1  0.73950000  0.91625000  0.12362000  1.0
  S2-  S1  1  0.73950000  0.41625000  0.32362000  1.0
  S2-  S1  1  0.73950000  0.91625000  0.32362000  1.0
  S2-  S1  1  0.73950000  0.41625000  0.52362000  1.0
  S2-  S1  1  0.73950000  0.91625000  0.52362000  1.0
  S2-  S1  1  0.73950000  0.41625000  0.72362000  1.0
  S2-  S1  1  0.73950000  0.91625000  0.72362000  1.0
  S2-  S1  1  0.73950000  0.41625000  0.92362000  1.0
  S2-  S1  1  0.73950000  0.91625000  0.92362000  1.0
  S2-  S1  1  0.76050000  0.08375000  0.02362000  1.0
  S2-  S1  1  0.76050000  0.58375000  0.02362000  1.0
  S2-  S1  1  0.76050000  0.08375000  0.22362000  1.0
  S2-  S1  1  0.76050000  0.58375000  0.22362000  1.0
  S2-  S1  1  0.76050000  0.08375000  0.42362000  1.0
  S2-  S1  1  0.76050000  0.58375000  0.42362000  1.0
  S2-  S1  1  0.76050000  0.08375000  0.62362000  1.0
  S2-  S1  1  0.76050000  0.58375000  0.62362000  1.0
  S2-  S1  1  0.76050000  0.08375000  0.82362000  1.0
  S2-  S1  1  0.76050000  0.58375000  0.82362000  1.0
  S2-  S2  1  0.00000000  0.32215000  0.02394000  1.0
  S2-  S2  1  0.00000000  0.82215000  0.02394000  1.0
  S2-  S2  1  0.00000000  0.32215000  0.22394000  1.0
  S2-  S2  1  0.00000000  0.82215000  0.22394000  1.0
  S2-  S2  1  0.00000000  0.32215000  0.42394000  1.0
  S2-  S2  1  0.00000000  0.82215000  0.42394000  1.0
  S2-  S2  1  0.00000000  0.32215000  0.62394000  1.0
  S2-  S2  1  0.00000000  0.82215000  0.62394000  1.0
  S2-  S2  1  0.00000000  0.32215000  0.82394000  1.0
  S2-  S2  1  0.00000000  0.82215000  0.82394000  1.0
  S2-  S2  1  0.50000000  0.17785000  0.12394000  1.0
  S2-  S2  1  0.50000000  0.67785000  0.12394000  1.0
  S2-  S2  1  0.50000000  0.17785000  0.32394000  1.0
  S2-  S2  1  0.50000000  0.67785000  0.32394000  1.0
  S2-  S2  1  0.50000000  0.17785000  0.52394000  1.0
  S2-  S2  1  0.50000000  0.67785000  0.52394000  1.0
  S2-  S2  1  0.50000000  0.17785000  0.72394000  1.0
  S2-  S2  1  0.50000000  0.67785000  0.72394000  1.0
  S2-  S2  1  0.50000000  0.17785000  0.92394000  1.0
  S2-  S2  1  0.50000000  0.67785000  0.92394000  1.0
  S2-  S3  1  0.00000000  0.16010000  0.12682000  1.0
  S2-  S3  1  0.00000000  0.66010000  0.12682000  1.0
  S2-  S3  1  0.00000000  0.16010000  0.32682000  1.0
  S2-  S3  1  0.00000000  0.66010000  0.32682000  1.0
  S2-  S3  1  0.00000000  0.16010000  0.52682000  1.0
  S2-  S3  1  0.00000000  0.66010000  0.52682000  1.0
  S2-  S3  1  0.00000000  0.16010000  0.72682000  1.0
  S2-  S3  1  0.00000000  0.66010000  0.72682000  1.0
  S2-  S3  1  0.00000000  0.16010000  0.92682000  1.0
  S2-  S3  1  0.00000000  0.66010000  0.92682000  1.0
  S2-  S3  1  0.50000000  0.33990000  0.02682000  1.0
  S2-  S3  1  0.50000000  0.83990000  0.02682000  1.0
  S2-  S3  1  0.50000000  0.33990000  0.22682000  1.0
  S2-  S3  1  0.50000000  0.83990000  0.22682000  1.0
  S2-  S3  1  0.50000000  0.33990000  0.42682000  1.0
  S2-  S3  1  0.50000000  0.83990000  0.42682000  1.0
  S2-  S3  1  0.50000000  0.33990000  0.62682000  1.0
  S2-  S3  1  0.50000000  0.83990000  0.62682000  1.0
  S2-  S3  1  0.50000000  0.33990000  0.82682000  1.0
  S2-  S3  1  0.50000000  0.83990000  0.82682000  1.0
