# generated using pymatgen
data_NaLiSO4
_symmetry_space_group_name_H-M   'P 1'
_cell_length_a   22.88100000
_cell_length_b   9.85790000
_cell_length_c   7.62700000
_cell_angle_alpha   90.00000000
_cell_angle_beta   60.00000000
_cell_angle_gamma   90.00000000
_symmetry_Int_Tables_number   1
_chemical_formula_structural   NaLiSO4
_chemical_formula_sum   'Na18 Li18 S18 O72'
_cell_volume   1489.85426137
_cell_formula_units_Z   18
loop_
 _symmetry_equiv_pos_site_id
 _symmetry_equiv_pos_as_xyz
  1  'x, y, z'
loop_
 _atom_type_symbol
 _atom_type_oxidation_number
  Na+  1.0
  Li+  1.0
  S6+  6.0
  O2-  -2.0
loop_
 _atom_site_type_symbol
 _atom_site_label
 _atom_site_symmetry_multiplicity
 _atom_site_fract_x
 _atom_site_fract_y
 _atom_site_fract_z
 _atom_site_occupancy
  Na+  Na0  1  0.32494333  0.01190000  0.22837000  1.0
  Na+  Na1  1  0.65827667  0.01190000  0.22837000  1.0
  Na+  Na2  1  0.99161000  0.01190000  0.22837000  1.0
  Na+  Na3  1  0.15945667  0.01190000  0.29680000  1.0
  Na+  Na4  1  0.49279000  0.01190000  0.29680000  1.0
  Na+  Na5  1  0.82612333  0.01190000  0.29680000  1.0
  Na+  Na6  1  0.18226667  0.01190000  0.72483000  1.0
  Na+  Na7  1  0.51560000  0.01190000  0.72483000  1.0
  Na+  Na8  1  0.84893333  0.01190000  0.72483000  1.0
  Na+  Na9  1  0.17153084  0.51123764  0.77182722  1.0
  Na+  Na10  1  0.50721000  0.51190000  0.77517000  1.0
  Na+  Na11  1  0.84054333  0.51190000  0.77517000  1.0
  Na+  Na12  1  0.15106667  0.51190000  0.27163000  1.0
  Na+  Na13  1  0.48440000  0.51190000  0.27163000  1.0
  Na+  Na14  1  0.81610975  0.51041987  0.26746248  1.0
  Na+  Na15  1  0.00839000  0.51190000  0.20320000  1.0
  Na+  Na16  1  0.34172333  0.51190000  0.20320000  1.0
  Na+  Na17  1  0.67346861  0.51483622  0.20080346  1.0
  Li+  Li18  1  0.32328116  0.24515092  0.52792264  1.0
  Li+  Li19  1  0.65640000  0.24170000  0.53050000  1.0
  Li+  Li20  1  0.98797658  0.24336147  0.52901421  1.0
  Li+  Li21  1  0.25943934  0.23533499  0.99751215  1.0
  Li+  Li22  1  0.59350000  0.24170000  0.00030000  1.0
  Li+  Li23  1  0.92683333  0.24170000  0.00030000  1.0
  Li+  Li24  1  0.08352533  0.24533751  0.72002860  1.0
  Li+  Li25  1  0.41676667  0.24170000  0.71920000  1.0
  Li+  Li26  1  0.75010000  0.24170000  0.71920000  1.0
  Li+  Li27  1  0.07316667  0.74170000  0.78080000  1.0
  Li+  Li28  1  0.40578115  0.74271098  0.78397571  1.0
  Li+  Li29  1  0.73983333  0.74170000  0.78080000  1.0
  Li+  Li30  1  0.24990000  0.74170000  0.96950000  1.0
  Li+  Li31  1  0.58156473  0.74084563  0.96940256  1.0
  Li+  Li32  1  0.91771921  0.74339636  0.96880244  1.0
  Li+  Li33  1  0.01026667  0.74170000  0.49970000  1.0
  Li+  Li34  1  0.34360000  0.74170000  0.49970000  1.0
  Li+  Li35  1  0.67693333  0.74170000  0.49970000  1.0
  S6+  S36  1  0.00000000  0.50000000  0.75000000  1.0
  S6+  S37  1  0.33333333  0.50000000  0.75000000  1.0
  S6+  S38  1  0.66666667  0.50000000  0.75000000  1.0
  S6+  S39  1  0.99761764  0.00129058  0.74729335  1.0
  S6+  S40  1  0.33333333  0.00000000  0.75000000  1.0
  S6+  S41  1  0.66666667  0.00000000  0.75000000  1.0
  S6+  S42  1  0.22228191  0.30176648  0.41420882  1.0
  S6+  S43  1  0.55555556  0.30240000  0.41666667  1.0
  S6+  S44  1  0.88888889  0.30240000  0.41666667  1.0
  S6+  S45  1  0.11111111  0.80240000  0.08333333  1.0
  S6+  S46  1  0.44521005  0.80360773  0.08427657  1.0
  S6+  S47  1  0.77777778  0.80240000  0.08333333  1.0
  S6+  S48  1  0.11111111  0.23680000  0.08333333  1.0
  S6+  S49  1  0.44444444  0.23680000  0.08333333  1.0
  S6+  S50  1  0.77777778  0.23680000  0.08333333  1.0
  S6+  S51  1  0.22255816  0.73358598  0.41564772  1.0
  S6+  S52  1  0.55555556  0.73680000  0.41666667  1.0
  S6+  S53  1  0.88888889  0.73680000  0.41666667  1.0
  O2-  O54  1  0.00000000  0.34720000  0.75000000  1.0
  O2-  O55  1  0.33333333  0.34720000  0.75000000  1.0
  O2-  O56  1  0.66666667  0.34720000  0.75000000  1.0
  O2-  O57  1  0.00000000  0.84720000  0.75000000  1.0
  O2-  O58  1  0.33333333  0.84720000  0.75000000  1.0
  O2-  O59  1  0.66666667  0.84720000  0.75000000  1.0
  O2-  O60  1  0.22184507  0.15731199  0.41489432  1.0
  O2-  O61  1  0.55555556  0.15510000  0.41666667  1.0
  O2-  O62  1  0.88888889  0.15510000  0.41666667  1.0
  O2-  O63  1  0.11111111  0.65510000  0.08333333  1.0
  O2-  O64  1  0.44444444  0.65510000  0.08333333  1.0
  O2-  O65  1  0.77777778  0.65510000  0.08333333  1.0
  O2-  O66  1  0.11111111  0.38320000  0.08333333  1.0
  O2-  O67  1  0.44444444  0.38320000  0.08333333  1.0
  O2-  O68  1  0.77777778  0.38320000  0.08333333  1.0
  O2-  O69  1  0.22222222  0.88320000  0.41666667  1.0
  O2-  O70  1  0.55555556  0.88320000  0.41666667  1.0
  O2-  O71  1  0.88888889  0.88320000  0.41666667  1.0
  O2-  O72  1  0.26250000  0.54600000  0.85170000  1.0
  O2-  O73  1  0.59583333  0.54600000  0.85170000  1.0
  O2-  O74  1  0.92916667  0.54600000  0.85170000  1.0
  O2-  O75  1  0.03390000  0.54600000  0.86080000  1.0
  O2-  O76  1  0.36723333  0.54600000  0.86080000  1.0
  O2-  O77  1  0.70006770  0.55211303  0.86085329  1.0
  O2-  O78  1  0.03693333  0.54600000  0.53750000  1.0
  O2-  O79  1  0.36840592  0.55044666  0.53760173  1.0
  O2-  O80  1  0.70360000  0.54600000  0.53750000  1.0
  O2-  O81  1  0.29943333  0.04600000  0.96250000  1.0
  O2-  O82  1  0.63276667  0.04600000  0.96250000  1.0
  O2-  O83  1  0.96610000  0.04600000  0.96250000  1.0
  O2-  O84  1  0.29640000  0.04600000  0.64830000  1.0
  O2-  O85  1  0.62973333  0.04600000  0.64830000  1.0
  O2-  O86  1  0.96188224  0.04259557  0.64839721  1.0
  O2-  O87  1  0.07083333  0.04600000  0.63920000  1.0
  O2-  O88  1  0.40643866  0.04781292  0.63986218  1.0
  O2-  O89  1  0.73750000  0.04600000  0.63920000  1.0
  O2-  O90  1  0.25940000  0.35320000  0.51610000  1.0
  O2-  O91  1  0.59273333  0.35320000  0.51610000  1.0
  O2-  O92  1  0.92606667  0.35320000  0.51610000  1.0
  O2-  O93  1  0.25465299  0.35173473  0.20560310  1.0
  O2-  O94  1  0.59238844  0.35779624  0.20679921  1.0
  O2-  O95  1  0.92203333  0.35320000  0.20570000  1.0
  O2-  O96  1  0.15190000  0.35320000  0.52820000  1.0
  O2-  O97  1  0.48568232  0.34998877  0.52285840  1.0
  O2-  O98  1  0.81856667  0.35320000  0.52820000  1.0
  O2-  O99  1  0.07796667  0.85320000  0.97180000  1.0
  O2-  O100  1  0.41105053  0.85323752  0.97335152  1.0
  O2-  O101  1  0.74463333  0.85320000  0.97180000  1.0
  O2-  O102  1  0.18232930  0.85342522  0.98872916  1.0
  O2-  O103  1  0.51259668  0.85086418  0.98078240  1.0
  O2-  O104  1  0.85093751  0.85655907  0.98309736  1.0
  O2-  O105  1  0.07140829  0.85401410  0.29487831  1.0
  O2-  O106  1  0.40748015  0.85430463  0.28904460  1.0
  O2-  O107  1  0.74060000  0.85320000  0.29430000  1.0
  O2-  O108  1  0.17413333  0.18340000  0.05790000  1.0
  O2-  O109  1  0.50746667  0.18340000  0.05790000  1.0
  O2-  O110  1  0.84074674  0.18528807  0.06160867  1.0
  O2-  O111  1  0.10263333  0.18340000  0.91970000  1.0
  O2-  O112  1  0.43594105  0.18241418  0.92020156  1.0
  O2-  O113  1  0.76930000  0.18340000  0.91970000  1.0
  O2-  O114  1  0.05656667  0.18340000  0.27240000  1.0
  O2-  O115  1  0.38990000  0.18340000  0.27240000  1.0
  O2-  O116  1  0.72323333  0.18340000  0.27240000  1.0
  O2-  O117  1  0.23070000  0.68340000  0.22760000  1.0
  O2-  O118  1  0.56403333  0.68340000  0.22760000  1.0
  O2-  O119  1  0.89962638  0.68647021  0.22834975  1.0
  O2-  O120  1  0.27676667  0.68340000  0.44210000  1.0
  O2-  O121  1  0.61010000  0.68340000  0.44210000  1.0
  O2-  O122  1  0.94343333  0.68340000  0.44210000  1.0
  O2-  O123  1  0.15920000  0.68340000  0.58030000  1.0
  O2-  O124  1  0.49253333  0.68340000  0.58030000  1.0
  O2-  O125  1  0.82586667  0.68340000  0.58030000  1.0
