# generated using pymatgen
data_NaLiSO4
_symmetry_space_group_name_H-M   'P 1'
_cell_length_a   7.67599592
_cell_length_b   23.02798777
_cell_length_c   9.92122725
_cell_angle_alpha   90.00000000
_cell_angle_beta   90.00000000
_cell_angle_gamma   120.00000000
_symmetry_Int_Tables_number   1
_chemical_formula_structural   NaLiSO4
_chemical_formula_sum   'Na18 Li18 S18 O72'
_cell_volume   1518.75162109
_cell_formula_units_Z   18
loop_
 _symmetry_equiv_pos_site_id
 _symmetry_equiv_pos_as_xyz
  1  'x, y, z'
loop_
 _atom_type_symbol
 _atom_type_oxidation_number
  Na+  1.0
  Li+  1.0
  S6+  6.0
  O2-  -2.0
loop_
 _atom_site_type_symbol
 _atom_site_label
 _atom_site_symmetry_multiplicity
 _atom_site_fract_x
 _atom_site_fract_y
 _atom_site_fract_z
 _atom_site_occupancy
  Na+  Na0  1  0.47837000  0.34172333  0.98810000  1.0
  Na+  Na1  1  0.47837000  0.00839000  0.98810000  1.0
  Na+  Na2  1  0.47837000  0.67505667  0.98810000  1.0
  Na+  Na3  1  0.54680000  0.50721000  0.98810000  1.0
  Na+  Na4  1  0.54680000  0.17387667  0.98810000  1.0
  Na+  Na5  1  0.54680000  0.84054333  0.98810000  1.0
  Na+  Na6  1  0.97483000  0.48440000  0.98810000  1.0
  Na+  Na7  1  0.97483000  0.15106667  0.98810000  1.0
  Na+  Na8  1  0.97483000  0.81773333  0.98810000  1.0
  Na+  Na9  1  0.02517000  0.49279000  0.48810000  1.0
  Na+  Na10  1  0.02517000  0.15945667  0.48810000  1.0
  Na+  Na11  1  0.02517000  0.82612333  0.48810000  1.0
  Na+  Na12  1  0.52163000  0.51560000  0.48810000  1.0
  Na+  Na13  1  0.52163000  0.18226667  0.48810000  1.0
  Na+  Na14  1  0.52163000  0.84893333  0.48810000  1.0
  Na+  Na15  1  0.45320000  0.65827667  0.48810000  1.0
  Na+  Na16  1  0.45320000  0.32494333  0.48810000  1.0
  Na+  Na17  1  0.45320000  0.99161000  0.48810000  1.0
  Li+  Li18  1  0.78050000  0.34360000  0.75830000  1.0
  Li+  Li19  1  0.78050000  0.01026667  0.75830000  1.0
  Li+  Li20  1  0.78050000  0.67693333  0.75830000  1.0
  Li+  Li21  1  0.25030000  0.40650000  0.75830000  1.0
  Li+  Li22  1  0.25030000  0.07316667  0.75830000  1.0
  Li+  Li23  1  0.25030000  0.73983333  0.75830000  1.0
  Li+  Li24  1  0.96920000  0.58323333  0.75830000  1.0
  Li+  Li25  1  0.96920000  0.24990000  0.75830000  1.0
  Li+  Li26  1  0.96920000  0.91656667  0.75830000  1.0
  Li+  Li27  1  0.03080000  0.59350000  0.25830000  1.0
  Li+  Li28  1  0.03080000  0.26016667  0.25830000  1.0
  Li+  Li29  1  0.03080000  0.92683333  0.25830000  1.0
  Li+  Li30  1  0.21950000  0.41676667  0.25830000  1.0
  Li+  Li31  1  0.21950000  0.08343333  0.25830000  1.0
  Li+  Li32  1  0.21950000  0.75010000  0.25830000  1.0
  Li+  Li33  1  0.74970000  0.65640000  0.25830000  1.0
  Li+  Li34  1  0.74970000  0.32306667  0.25830000  1.0
  Li+  Li35  1  0.74970000  0.98973333  0.25830000  1.0
  S6+  S36  1  0.00000000  0.66666667  0.50000000  1.0
  S6+  S37  1  0.00000000  0.33333333  0.50000000  1.0
  S6+  S38  1  0.00000000  0.00000000  0.50000000  1.0
  S6+  S39  1  0.00000000  0.66666667  0.00000000  1.0
  S6+  S40  1  0.00000000  0.33333333  0.00000000  1.0
  S6+  S41  1  0.00000000  0.00000000  0.00000000  1.0
  S6+  S42  1  0.66666667  0.44444444  0.69760000  1.0
  S6+  S43  1  0.66666667  0.11111111  0.69760000  1.0
  S6+  S44  1  0.66666667  0.77777778  0.69760000  1.0
  S6+  S45  1  0.33333333  0.55555556  0.19760000  1.0
  S6+  S46  1  0.33333333  0.22222222  0.19760000  1.0
  S6+  S47  1  0.33333333  0.88888889  0.19760000  1.0
  S6+  S48  1  0.33333333  0.55555556  0.76320000  1.0
  S6+  S49  1  0.33333333  0.22222222  0.76320000  1.0
  S6+  S50  1  0.33333333  0.88888889  0.76320000  1.0
  S6+  S51  1  0.66666667  0.44444444  0.26320000  1.0
  S6+  S52  1  0.66666667  0.11111111  0.26320000  1.0
  S6+  S53  1  0.66666667  0.77777778  0.26320000  1.0
  O2-  O54  1  0.00000000  0.66666667  0.65280000  1.0
  O2-  O55  1  0.00000000  0.33333333  0.65280000  1.0
  O2-  O56  1  0.00000000  0.00000000  0.65280000  1.0
  O2-  O57  1  0.00000000  0.66666667  0.15280000  1.0
  O2-  O58  1  0.00000000  0.33333333  0.15280000  1.0
  O2-  O59  1  0.00000000  0.00000000  0.15280000  1.0
  O2-  O60  1  0.66666667  0.44444444  0.84490000  1.0
  O2-  O61  1  0.66666667  0.11111111  0.84490000  1.0
  O2-  O62  1  0.66666667  0.77777778  0.84490000  1.0
  O2-  O63  1  0.33333333  0.55555556  0.34490000  1.0
  O2-  O64  1  0.33333333  0.22222222  0.34490000  1.0
  O2-  O65  1  0.33333333  0.88888889  0.34490000  1.0
  O2-  O66  1  0.33333333  0.55555556  0.61680000  1.0
  O2-  O67  1  0.33333333  0.22222222  0.61680000  1.0
  O2-  O68  1  0.33333333  0.88888889  0.61680000  1.0
  O2-  O69  1  0.66666667  0.44444444  0.11680000  1.0
  O2-  O70  1  0.66666667  0.11111111  0.11680000  1.0
  O2-  O71  1  0.66666667  0.77777778  0.11680000  1.0
  O2-  O72  1  0.10170000  0.40416667  0.45400000  1.0
  O2-  O73  1  0.10170000  0.07083333  0.45400000  1.0
  O2-  O74  1  0.10170000  0.73750000  0.45400000  1.0
  O2-  O75  1  0.11080000  0.63276667  0.45400000  1.0
  O2-  O76  1  0.11080000  0.29943333  0.45400000  1.0
  O2-  O77  1  0.11080000  0.96610000  0.45400000  1.0
  O2-  O78  1  0.78750000  0.62973333  0.45400000  1.0
  O2-  O79  1  0.78750000  0.29640000  0.45400000  1.0
  O2-  O80  1  0.78750000  0.96306667  0.45400000  1.0
  O2-  O81  1  0.21250000  0.36723333  0.95400000  1.0
  O2-  O82  1  0.21250000  0.03390000  0.95400000  1.0
  O2-  O83  1  0.21250000  0.70056667  0.95400000  1.0
  O2-  O84  1  0.89830000  0.37026667  0.95400000  1.0
  O2-  O85  1  0.89830000  0.03693333  0.95400000  1.0
  O2-  O86  1  0.89830000  0.70360000  0.95400000  1.0
  O2-  O87  1  0.88920000  0.59583333  0.95400000  1.0
  O2-  O88  1  0.88920000  0.26250000  0.95400000  1.0
  O2-  O89  1  0.88920000  0.92916667  0.95400000  1.0
  O2-  O90  1  0.76610000  0.40726667  0.64680000  1.0
  O2-  O91  1  0.76610000  0.07393333  0.64680000  1.0
  O2-  O92  1  0.76610000  0.74060000  0.64680000  1.0
  O2-  O93  1  0.45570000  0.41130000  0.64680000  1.0
  O2-  O94  1  0.45570000  0.07796667  0.64680000  1.0
  O2-  O95  1  0.45570000  0.74463333  0.64680000  1.0
  O2-  O96  1  0.77820000  0.51476667  0.64680000  1.0
  O2-  O97  1  0.77820000  0.18143333  0.64680000  1.0
  O2-  O98  1  0.77820000  0.84810000  0.64680000  1.0
  O2-  O99  1  0.22180000  0.58870000  0.14680000  1.0
  O2-  O100  1  0.22180000  0.25536667  0.14680000  1.0
  O2-  O101  1  0.22180000  0.92203333  0.14680000  1.0
  O2-  O102  1  0.23390000  0.48523333  0.14680000  1.0
  O2-  O103  1  0.23390000  0.15190000  0.14680000  1.0
  O2-  O104  1  0.23390000  0.81856667  0.14680000  1.0
  O2-  O105  1  0.54430000  0.59273333  0.14680000  1.0
  O2-  O106  1  0.54430000  0.25940000  0.14680000  1.0
  O2-  O107  1  0.54430000  0.92606667  0.14680000  1.0
  O2-  O108  1  0.30790000  0.49253333  0.81660000  1.0
  O2-  O109  1  0.30790000  0.15920000  0.81660000  1.0
  O2-  O110  1  0.30790000  0.82586667  0.81660000  1.0
  O2-  O111  1  0.16970000  0.56403333  0.81660000  1.0
  O2-  O112  1  0.16970000  0.23070000  0.81660000  1.0
  O2-  O113  1  0.16970000  0.89736667  0.81660000  1.0
  O2-  O114  1  0.52240000  0.61010000  0.81660000  1.0
  O2-  O115  1  0.52240000  0.27676667  0.81660000  1.0
  O2-  O116  1  0.52240000  0.94343333  0.81660000  1.0
  O2-  O117  1  0.47760000  0.43596667  0.31660000  1.0
  O2-  O118  1  0.47760000  0.10263333  0.31660000  1.0
  O2-  O119  1  0.47760000  0.76930000  0.31660000  1.0
  O2-  O120  1  0.69210000  0.38990000  0.31660000  1.0
  O2-  O121  1  0.69210000  0.05656667  0.31660000  1.0
  O2-  O122  1  0.69210000  0.72323333  0.31660000  1.0
  O2-  O123  1  0.83030000  0.50746667  0.31660000  1.0
  O2-  O124  1  0.83030000  0.17413333  0.31660000  1.0
  O2-  O125  1  0.83030000  0.84080000  0.31660000  1.0
