# generated using pymatgen
data_Li7La3Hf2O12
_symmetry_space_group_name_H-M   'P 1'
_cell_length_a   11.21425411
_cell_length_b   11.21425411
_cell_length_c   22.42850822
_cell_angle_alpha   108.48897274
_cell_angle_beta   108.48897274
_cell_angle_gamma   111.45409911
_symmetry_Int_Tables_number   1
_chemical_formula_structural   Li7La3Hf2O12
_chemical_formula_sum   'Li56 La24 Hf16 O96'
_cell_volume   2169.33929766
_cell_formula_units_Z   8
loop_
 _symmetry_equiv_pos_site_id
 _symmetry_equiv_pos_as_xyz
  1  'x, y, z'
loop_
 _atom_type_symbol
 _atom_type_oxidation_number
  Li+  1.0
  La3+  3.0
  Hf4+  4.0
  O2-  -2.0
loop_
 _atom_site_type_symbol
 _atom_site_label
 _atom_site_symmetry_multiplicity
 _atom_site_fract_x
 _atom_site_fract_y
 _atom_site_fract_z
 _atom_site_occupancy
  Li+  Li1  1  0.87500000  0.62500000  0.37500000  1.0
  Li+  Li1  1  0.87500000  0.62500000  0.87500000  1.0
  Li+  Li1  1  0.37500000  0.12500000  0.37500000  1.0
  Li+  Li1  1  0.37500000  0.12500000  0.87500000  1.0
  Li+  Li1  1  0.62500000  0.87500000  0.12500000  1.0
  Li+  Li1  1  0.62500000  0.87500000  0.62500000  1.0
  Li+  Li1  1  0.12500000  0.37500000  0.12500000  1.0
  Li+  Li1  1  0.12500000  0.37500000  0.62500000  1.0
  Li+  Li2  1  0.30230000  0.69770000  0.37500000  1.0
  Li+  Li2  1  0.30230000  0.69770000  0.87500000  1.0
  Li+  Li2  1  0.44770000  0.19770000  0.19770000  1.0
  Li+  Li2  1  0.44770000  0.19770000  0.69770000  1.0
  Li+  Li2  1  0.05230000  0.94770000  0.12500000  1.0
  Li+  Li2  1  0.05230000  0.94770000  0.62500000  1.0
  Li+  Li2  1  0.19770000  0.44770000  0.44770000  1.0
  Li+  Li2  1  0.19770000  0.44770000  0.94770000  1.0
  Li+  Li2  1  0.69770000  0.30230000  0.12500000  1.0
  Li+  Li2  1  0.69770000  0.30230000  0.62500000  1.0
  Li+  Li2  1  0.55230000  0.80230000  0.30230000  1.0
  Li+  Li2  1  0.55230000  0.80230000  0.80230000  1.0
  Li+  Li2  1  0.94770000  0.05230000  0.37500000  1.0
  Li+  Li2  1  0.94770000  0.05230000  0.87500000  1.0
  Li+  Li2  1  0.80230000  0.55230000  0.05230000  1.0
  Li+  Li2  1  0.80230000  0.55230000  0.55230000  1.0
  Li+  Li3  1  0.28112000  0.11534000  0.25271000  1.0
  Li+  Li3  1  0.28112000  0.11534000  0.75271000  1.0
  Li+  Li3  1  0.10992000  0.61534000  0.41711000  1.0
  Li+  Li3  1  0.10992000  0.61534000  0.91711000  1.0
  Li+  Li3  1  0.27570000  0.60992000  0.24729000  1.0
  Li+  Li3  1  0.27570000  0.60992000  0.74729000  1.0
  Li+  Li3  1  0.61534000  0.10992000  0.16711000  1.0
  Li+  Li3  1  0.61534000  0.10992000  0.66711000  1.0
  Li+  Li3  1  0.71888000  0.88466000  0.24729000  1.0
  Li+  Li3  1  0.71888000  0.88466000  0.74729000  1.0
  Li+  Li3  1  0.89008000  0.38466000  0.08289000  1.0
  Li+  Li3  1  0.89008000  0.38466000  0.58289000  1.0
  Li+  Li3  1  0.72430000  0.39008000  0.25271000  1.0
  Li+  Li3  1  0.72430000  0.39008000  0.75271000  1.0
  Li+  Li3  1  0.38466000  0.89008000  0.33289000  1.0
  Li+  Li3  1  0.38466000  0.89008000  0.83289000  1.0
  Li+  Li3  1  0.78112000  0.77570000  0.33289000  1.0
  Li+  Li3  1  0.78112000  0.77570000  0.83289000  1.0
  Li+  Li3  1  0.60992000  0.27570000  0.49729000  1.0
  Li+  Li3  1  0.60992000  0.27570000  0.99729000  1.0
  Li+  Li3  1  0.77570000  0.78112000  0.08289000  1.0
  Li+  Li3  1  0.77570000  0.78112000  0.58289000  1.0
  Li+  Li3  1  0.11534000  0.28112000  0.00271000  1.0
  Li+  Li3  1  0.11534000  0.28112000  0.50271000  1.0
  Li+  Li3  1  0.21888000  0.22430000  0.16711000  1.0
  Li+  Li3  1  0.21888000  0.22430000  0.66711000  1.0
  Li+  Li3  1  0.39008000  0.72430000  0.00271000  1.0
  Li+  Li3  1  0.39008000  0.72430000  0.50271000  1.0
  Li+  Li3  1  0.22430000  0.21888000  0.41711000  1.0
  Li+  Li3  1  0.22430000  0.21888000  0.91711000  1.0
  Li+  Li3  1  0.88466000  0.71888000  0.49729000  1.0
  Li+  Li3  1  0.88466000  0.71888000  0.99729000  1.0
  La3+  La1  1  0.12500000  0.87500000  0.37500000  1.0
  La3+  La1  1  0.12500000  0.87500000  0.87500000  1.0
  La3+  La1  1  0.62500000  0.37500000  0.37500000  1.0
  La3+  La1  1  0.62500000  0.37500000  0.87500000  1.0
  La3+  La1  1  0.87500000  0.12500000  0.12500000  1.0
  La3+  La1  1  0.87500000  0.12500000  0.62500000  1.0
  La3+  La1  1  0.37500000  0.62500000  0.12500000  1.0
  La3+  La1  1  0.37500000  0.62500000  0.62500000  1.0
  La3+  La2  1  0.75000000  0.62297000  0.18648500  1.0
  La3+  La2  1  0.75000000  0.62297000  0.68648500  1.0
  La3+  La2  1  0.75000000  0.12297000  0.43648500  1.0
  La3+  La2  1  0.75000000  0.12297000  0.93648500  1.0
  La3+  La2  1  0.87703000  0.25000000  0.31351500  1.0
  La3+  La2  1  0.87703000  0.25000000  0.81351500  1.0
  La3+  La2  1  0.12297000  0.75000000  0.18648500  1.0
  La3+  La2  1  0.12297000  0.75000000  0.68648500  1.0
  La3+  La2  1  0.25000000  0.37703000  0.31351500  1.0
  La3+  La2  1  0.25000000  0.37703000  0.81351500  1.0
  La3+  La2  1  0.25000000  0.87703000  0.06351500  1.0
  La3+  La2  1  0.25000000  0.87703000  0.56351500  1.0
  La3+  La2  1  0.37703000  0.25000000  0.06351500  1.0
  La3+  La2  1  0.37703000  0.25000000  0.56351500  1.0
  La3+  La2  1  0.62297000  0.75000000  0.43648500  1.0
  La3+  La2  1  0.62297000  0.75000000  0.93648500  1.0
  Hf4+  Hf1  1  0.00000000  0.00000000  0.25000000  1.0
  Hf4+  Hf1  1  0.00000000  0.00000000  0.75000000  1.0
  Hf4+  Hf1  1  0.00000000  0.50000000  0.00000000  1.0
  Hf4+  Hf1  1  0.00000000  0.50000000  0.50000000  1.0
  Hf4+  Hf1  1  0.00000000  0.50000000  0.25000000  1.0
  Hf4+  Hf1  1  0.00000000  0.50000000  0.75000000  1.0
  Hf4+  Hf1  1  0.50000000  0.00000000  0.25000000  1.0
  Hf4+  Hf1  1  0.50000000  0.00000000  0.75000000  1.0
  Hf4+  Hf1  1  0.50000000  0.50000000  0.25000000  1.0
  Hf4+  Hf1  1  0.50000000  0.50000000  0.75000000  1.0
  Hf4+  Hf1  1  0.50000000  0.00000000  0.00000000  1.0
  Hf4+  Hf1  1  0.50000000  0.00000000  0.50000000  1.0
  Hf4+  Hf1  1  0.50000000  0.50000000  0.00000000  1.0
  Hf4+  Hf1  1  0.50000000  0.50000000  0.50000000  1.0
  Hf4+  Hf1  1  0.00000000  0.00000000  0.00000000  1.0
  Hf4+  Hf1  1  0.00000000  0.00000000  0.50000000  1.0
  O2-  O1  1  0.90259000  0.88108000  0.29380500  1.0
  O2-  O1  1  0.90259000  0.88108000  0.79380500  1.0
  O2-  O1  1  0.79347000  0.38108000  0.48924500  1.0
  O2-  O1  1  0.79347000  0.38108000  0.98924500  1.0
  O2-  O1  1  0.81498000  0.29347000  0.20619500  1.0
  O2-  O1  1  0.81498000  0.29347000  0.70619500  1.0
  O2-  O1  1  0.38108000  0.79347000  0.23924500  1.0
  O2-  O1  1  0.38108000  0.79347000  0.73924500  1.0
  O2-  O1  1  0.09741000  0.11892000  0.20619500  1.0
  O2-  O1  1  0.09741000  0.11892000  0.70619500  1.0
  O2-  O1  1  0.20653000  0.61892000  0.01075500  1.0
  O2-  O1  1  0.20653000  0.61892000  0.51075500  1.0
  O2-  O1  1  0.18502000  0.70653000  0.29380500  1.0
  O2-  O1  1  0.18502000  0.70653000  0.79380500  1.0
  O2-  O1  1  0.61892000  0.20653000  0.26075500  1.0
  O2-  O1  1  0.61892000  0.20653000  0.76075500  1.0
  O2-  O1  1  0.40259000  0.31498000  0.26075500  1.0
  O2-  O1  1  0.40259000  0.31498000  0.76075500  1.0
  O2-  O1  1  0.29347000  0.81498000  0.45619500  1.0
  O2-  O1  1  0.29347000  0.81498000  0.95619500  1.0
  O2-  O1  1  0.31498000  0.40259000  0.01075500  1.0
  O2-  O1  1  0.31498000  0.40259000  0.51075500  1.0
  O2-  O1  1  0.88108000  0.90259000  0.04380500  1.0
  O2-  O1  1  0.88108000  0.90259000  0.54380500  1.0
  O2-  O1  1  0.59741000  0.68502000  0.23924500  1.0
  O2-  O1  1  0.59741000  0.68502000  0.73924500  1.0
  O2-  O1  1  0.70653000  0.18502000  0.04380500  1.0
  O2-  O1  1  0.70653000  0.18502000  0.54380500  1.0
  O2-  O1  1  0.68502000  0.59741000  0.48924500  1.0
  O2-  O1  1  0.68502000  0.59741000  0.98924500  1.0
  O2-  O1  1  0.11892000  0.09741000  0.45619500  1.0
  O2-  O1  1  0.11892000  0.09741000  0.95619500  1.0
  O2-  O2  1  0.31957000  0.41229000  0.14995000  1.0
  O2-  O2  1  0.31957000  0.41229000  0.64995000  1.0
  O2-  O2  1  0.61239000  0.91229000  0.04636000  1.0
  O2-  O2  1  0.61239000  0.91229000  0.54636000  1.0
  O2-  O2  1  0.51967000  0.11239000  0.35005000  1.0
  O2-  O2  1  0.51967000  0.11239000  0.85005000  1.0
  O2-  O2  1  0.91229000  0.61239000  0.29636000  1.0
  O2-  O2  1  0.91229000  0.61239000  0.79636000  1.0
  O2-  O2  1  0.68043000  0.58771000  0.35005000  1.0
  O2-  O2  1  0.68043000  0.58771000  0.85005000  1.0
  O2-  O2  1  0.38761000  0.08771000  0.45364000  1.0
  O2-  O2  1  0.38761000  0.08771000  0.95364000  1.0
  O2-  O2  1  0.48033000  0.88761000  0.14995000  1.0
  O2-  O2  1  0.48033000  0.88761000  0.64995000  1.0
  O2-  O2  1  0.08771000  0.38761000  0.20364000  1.0
  O2-  O2  1  0.08771000  0.38761000  0.70364000  1.0
  O2-  O2  1  0.81957000  0.01967000  0.20364000  1.0
  O2-  O2  1  0.81957000  0.01967000  0.70364000  1.0
  O2-  O2  1  0.11239000  0.51967000  0.10005000  1.0
  O2-  O2  1  0.11239000  0.51967000  0.60005000  1.0
  O2-  O2  1  0.01967000  0.81957000  0.45364000  1.0
  O2-  O2  1  0.01967000  0.81957000  0.95364000  1.0
  O2-  O2  1  0.41229000  0.31957000  0.39995000  1.0
  O2-  O2  1  0.41229000  0.31957000  0.89995000  1.0
  O2-  O2  1  0.18043000  0.98033000  0.29636000  1.0
  O2-  O2  1  0.18043000  0.98033000  0.79636000  1.0
  O2-  O2  1  0.88761000  0.48033000  0.39995000  1.0
  O2-  O2  1  0.88761000  0.48033000  0.89995000  1.0
  O2-  O2  1  0.98033000  0.18043000  0.04636000  1.0
  O2-  O2  1  0.98033000  0.18043000  0.54636000  1.0
  O2-  O2  1  0.58771000  0.68043000  0.10005000  1.0
  O2-  O2  1  0.58771000  0.68043000  0.60005000  1.0
  O2-  O3  1  0.57996000  0.40427000  0.18923500  1.0
  O2-  O3  1  0.57996000  0.40427000  0.68923500  1.0
  O2-  O3  1  0.52580000  0.90427000  0.41215500  1.0
  O2-  O3  1  0.52580000  0.90427000  0.91215500  1.0
  O2-  O3  1  0.70149000  0.02580000  0.31076500  1.0
  O2-  O3  1  0.70149000  0.02580000  0.81076500  1.0
  O2-  O3  1  0.90427000  0.52580000  0.16215500  1.0
  O2-  O3  1  0.90427000  0.52580000  0.66215500  1.0
  O2-  O3  1  0.42004000  0.59573000  0.31076500  1.0
  O2-  O3  1  0.42004000  0.59573000  0.81076500  1.0
  O2-  O3  1  0.47420000  0.09573000  0.08784500  1.0
  O2-  O3  1  0.47420000  0.09573000  0.58784500  1.0
  O2-  O3  1  0.29851000  0.97420000  0.18923500  1.0
  O2-  O3  1  0.29851000  0.97420000  0.68923500  1.0
  O2-  O3  1  0.09573000  0.47420000  0.33784500  1.0
  O2-  O3  1  0.09573000  0.47420000  0.83784500  1.0
  O2-  O3  1  0.07996000  0.20149000  0.33784500  1.0
  O2-  O3  1  0.07996000  0.20149000  0.83784500  1.0
  O2-  O3  1  0.02580000  0.70149000  0.06076500  1.0
  O2-  O3  1  0.02580000  0.70149000  0.56076500  1.0
  O2-  O3  1  0.20149000  0.07996000  0.08784500  1.0
  O2-  O3  1  0.20149000  0.07996000  0.58784500  1.0
  O2-  O3  1  0.40427000  0.57996000  0.43923500  1.0
  O2-  O3  1  0.40427000  0.57996000  0.93923500  1.0
  O2-  O3  1  0.92004000  0.79851000  0.16215500  1.0
  O2-  O3  1  0.92004000  0.79851000  0.66215500  1.0
  O2-  O3  1  0.97420000  0.29851000  0.43923500  1.0
  O2-  O3  1  0.97420000  0.29851000  0.93923500  1.0
  O2-  O3  1  0.79851000  0.92004000  0.41215500  1.0
  O2-  O3  1  0.79851000  0.92004000  0.91215500  1.0
  O2-  O3  1  0.59573000  0.42004000  0.06076500  1.0
  O2-  O3  1  0.59573000  0.42004000  0.56076500  1.0
