# generated using pymatgen
data_LiSbO2
_symmetry_space_group_name_H-M   'P 1'
_cell_length_a   9.71000000
_cell_length_b   17.85700000
_cell_length_c   16.73130000
_cell_angle_alpha   90.00000000
_cell_angle_beta   89.93900000
_cell_angle_gamma   90.00000000
_symmetry_Int_Tables_number   1
_chemical_formula_structural   LiSbO2
_chemical_formula_sum   'Li48 Sb48 O96'
_cell_volume   2901.06305786
_cell_formula_units_Z   48
loop_
 _symmetry_equiv_pos_site_id
 _symmetry_equiv_pos_as_xyz
  1  'x, y, z'
loop_
 _atom_type_symbol
 _atom_type_oxidation_number
  Li+  1.0
  Sb3+  3.0
  O2-  -2.0
loop_
 _atom_site_type_symbol
 _atom_site_label
 _atom_site_symmetry_multiplicity
 _atom_site_fract_x
 _atom_site_fract_y
 _atom_site_fract_z
 _atom_site_occupancy
  Li+  Li0  1  0.37300000  0.28100000  0.59733333  1.0
  Li+  Li1  1  0.37300000  0.28100000  0.26400000  1.0
  Li+  Li2  1  0.37300000  0.28100000  0.93066667  1.0
  Li+  Li3  1  0.87300000  0.28100000  0.59733333  1.0
  Li+  Li4  1  0.87483065  0.28246984  0.26337281  1.0
  Li+  Li5  1  0.87300000  0.28100000  0.93066667  1.0
  Li+  Li6  1  0.12700000  0.78100000  0.73600000  1.0
  Li+  Li7  1  0.12700000  0.78100000  0.40266667  1.0
  Li+  Li8  1  0.12903334  0.78146346  0.06919870  1.0
  Li+  Li9  1  0.62700000  0.78100000  0.73600000  1.0
  Li+  Li10  1  0.62700000  0.78100000  0.40266667  1.0
  Li+  Li11  1  0.62700000  0.78100000  0.06933333  1.0
  Li+  Li12  1  0.12700000  0.71900000  0.56933333  1.0
  Li+  Li13  1  0.12700000  0.71900000  0.23600000  1.0
  Li+  Li14  1  0.12751920  0.71564263  0.90271145  1.0
  Li+  Li15  1  0.62700000  0.71900000  0.56933333  1.0
  Li+  Li16  1  0.62700000  0.71900000  0.23600000  1.0
  Li+  Li17  1  0.62700000  0.71900000  0.90266667  1.0
  Li+  Li18  1  0.37005819  0.21855649  0.43295733  1.0
  Li+  Li19  1  0.37300000  0.21900000  0.09733333  1.0
  Li+  Li20  1  0.37300000  0.21900000  0.76400000  1.0
  Li+  Li21  1  0.87300000  0.21900000  0.43066667  1.0
  Li+  Li22  1  0.87300000  0.21900000  0.09733333  1.0
  Li+  Li23  1  0.87300000  0.21900000  0.76400000  1.0
  Li+  Li24  1  0.11105139  0.29061249  0.70910435  1.0
  Li+  Li25  1  0.11500000  0.28900000  0.37533333  1.0
  Li+  Li26  1  0.11432069  0.28788357  0.04500083  1.0
  Li+  Li27  1  0.61500000  0.28900000  0.70866667  1.0
  Li+  Li28  1  0.61500000  0.28900000  0.37533333  1.0
  Li+  Li29  1  0.61500000  0.28900000  0.04200000  1.0
  Li+  Li30  1  0.38500000  0.78900000  0.62466667  1.0
  Li+  Li31  1  0.38500000  0.78900000  0.29133333  1.0
  Li+  Li32  1  0.38500000  0.78900000  0.95800000  1.0
  Li+  Li33  1  0.88610624  0.78925321  0.62545502  1.0
  Li+  Li34  1  0.88500000  0.78900000  0.29133333  1.0
  Li+  Li35  1  0.88500000  0.78900000  0.95800000  1.0
  Li+  Li36  1  0.38500000  0.71100000  0.45800000  1.0
  Li+  Li37  1  0.38500000  0.71100000  0.12466667  1.0
  Li+  Li38  1  0.38619130  0.71027125  0.79748928  1.0
  Li+  Li39  1  0.88500000  0.71100000  0.45800000  1.0
  Li+  Li40  1  0.88500000  0.71100000  0.12466667  1.0
  Li+  Li41  1  0.88500000  0.71100000  0.79133333  1.0
  Li+  Li42  1  0.11500000  0.21100000  0.54200000  1.0
  Li+  Li43  1  0.11466668  0.21055729  0.20624805  1.0
  Li+  Li44  1  0.11500000  0.21100000  0.87533333  1.0
  Li+  Li45  1  0.61716308  0.20626544  0.53856282  1.0
  Li+  Li46  1  0.61500000  0.21100000  0.20866667  1.0
  Li+  Li47  1  0.61467538  0.21266308  0.87229989  1.0
  Sb3+  Sb48  1  0.37050000  0.90060000  0.44036667  1.0
  Sb3+  Sb49  1  0.36726138  0.90339533  0.10269899  1.0
  Sb3+  Sb50  1  0.37050000  0.90060000  0.77370000  1.0
  Sb3+  Sb51  1  0.87050000  0.90060000  0.44036667  1.0
  Sb3+  Sb52  1  0.87050000  0.90060000  0.10703333  1.0
  Sb3+  Sb53  1  0.87050000  0.90060000  0.77370000  1.0
  Sb3+  Sb54  1  0.12950000  0.40060000  0.55963333  1.0
  Sb3+  Sb55  1  0.12809196  0.39798752  0.22682601  1.0
  Sb3+  Sb56  1  0.13283291  0.40177331  0.88949356  1.0
  Sb3+  Sb57  1  0.62636377  0.40096660  0.56101240  1.0
  Sb3+  Sb58  1  0.62950000  0.40060000  0.22630000  1.0
  Sb3+  Sb59  1  0.62950000  0.40060000  0.89296667  1.0
  Sb3+  Sb60  1  0.12950000  0.09940000  0.72630000  1.0
  Sb3+  Sb61  1  0.12950000  0.09940000  0.39296667  1.0
  Sb3+  Sb62  1  0.12838620  0.09824097  0.06014197  1.0
  Sb3+  Sb63  1  0.62866907  0.09966367  0.72823901  1.0
  Sb3+  Sb64  1  0.62843088  0.10088873  0.38759427  1.0
  Sb3+  Sb65  1  0.62950000  0.09940000  0.05963333  1.0
  Sb3+  Sb66  1  0.37050000  0.59940000  0.60703333  1.0
  Sb3+  Sb67  1  0.37050000  0.59940000  0.27370000  1.0
  Sb3+  Sb68  1  0.37050000  0.59940000  0.94036667  1.0
  Sb3+  Sb69  1  0.87050000  0.59940000  0.60703333  1.0
  Sb3+  Sb70  1  0.87050000  0.59940000  0.27370000  1.0
  Sb3+  Sb71  1  0.87050000  0.59940000  0.94036667  1.0
  Sb3+  Sb72  1  0.38411142  0.09715939  0.57980300  1.0
  Sb3+  Sb73  1  0.38378182  0.09863686  0.24687159  1.0
  Sb3+  Sb74  1  0.38150000  0.09680000  0.91466667  1.0
  Sb3+  Sb75  1  0.88150000  0.09680000  0.58133333  1.0
  Sb3+  Sb76  1  0.88150000  0.09680000  0.24800000  1.0
  Sb3+  Sb77  1  0.88150000  0.09680000  0.91466667  1.0
  Sb3+  Sb78  1  0.11850000  0.59680000  0.41866667  1.0
  Sb3+  Sb79  1  0.11850000  0.59680000  0.08533333  1.0
  Sb3+  Sb80  1  0.11850000  0.59680000  0.75200000  1.0
  Sb3+  Sb81  1  0.61850000  0.59680000  0.41866667  1.0
  Sb3+  Sb82  1  0.61850000  0.59680000  0.08533333  1.0
  Sb3+  Sb83  1  0.61850000  0.59680000  0.75200000  1.0
  Sb3+  Sb84  1  0.11850000  0.90320000  0.58533333  1.0
  Sb3+  Sb85  1  0.11850000  0.90320000  0.25200000  1.0
  Sb3+  Sb86  1  0.11850000  0.90320000  0.91866667  1.0
  Sb3+  Sb87  1  0.61850000  0.90320000  0.58533333  1.0
  Sb3+  Sb88  1  0.61850000  0.90320000  0.25200000  1.0
  Sb3+  Sb89  1  0.61850000  0.90320000  0.91866667  1.0
  Sb3+  Sb90  1  0.38271674  0.40611208  0.74942272  1.0
  Sb3+  Sb91  1  0.38227755  0.40450998  0.41442418  1.0
  Sb3+  Sb92  1  0.38150000  0.40320000  0.08133333  1.0
  Sb3+  Sb93  1  0.88150000  0.40320000  0.74800000  1.0
  Sb3+  Sb94  1  0.88123168  0.40249997  0.41146661  1.0
  Sb3+  Sb95  1  0.88150000  0.40320000  0.08133333  1.0
  O2-  O96  1  0.33050000  0.80580000  0.73766667  1.0
  O2-  O97  1  0.33128380  0.80285148  0.41039470  1.0
  O2-  O98  1  0.33050000  0.80580000  0.07100000  1.0
  O2-  O99  1  0.83050000  0.80580000  0.73766667  1.0
  O2-  O100  1  0.83050000  0.80580000  0.40433333  1.0
  O2-  O101  1  0.83050000  0.80580000  0.07100000  1.0
  O2-  O102  1  0.16935055  0.30315622  0.59578357  1.0
  O2-  O103  1  0.16950000  0.30580000  0.26233333  1.0
  O2-  O104  1  0.16950000  0.30580000  0.92900000  1.0
  O2-  O105  1  0.66950000  0.30580000  0.59566667  1.0
  O2-  O106  1  0.66854691  0.30517894  0.26489172  1.0
  O2-  O107  1  0.66439303  0.30167388  0.92762264  1.0
  O2-  O108  1  0.16950000  0.19420000  0.42900000  1.0
  O2-  O109  1  0.16950000  0.19420000  0.09566667  1.0
  O2-  O110  1  0.16950000  0.19420000  0.76233333  1.0
  O2-  O111  1  0.66950000  0.19420000  0.42900000  1.0
  O2-  O112  1  0.66950000  0.19420000  0.09566667  1.0
  O2-  O113  1  0.66950000  0.19420000  0.76233333  1.0
  O2-  O114  1  0.33050000  0.69420000  0.57100000  1.0
  O2-  O115  1  0.33050000  0.69420000  0.23766667  1.0
  O2-  O116  1  0.33050000  0.69420000  0.90433333  1.0
  O2-  O117  1  0.83050000  0.69420000  0.57100000  1.0
  O2-  O118  1  0.83050000  0.69420000  0.23766667  1.0
  O2-  O119  1  0.83232550  0.69417245  0.90189928  1.0
  O2-  O120  1  0.41500000  0.19660000  0.54266667  1.0
  O2-  O121  1  0.41231298  0.19951455  0.20616689  1.0
  O2-  O122  1  0.41500000  0.19660000  0.87600000  1.0
  O2-  O123  1  0.91500000  0.19660000  0.54266667  1.0
  O2-  O124  1  0.91500000  0.19660000  0.20933333  1.0
  O2-  O125  1  0.91872410  0.19289264  0.87282341  1.0
  O2-  O126  1  0.08500000  0.69660000  0.45733333  1.0
  O2-  O127  1  0.08203892  0.69052917  0.12375436  1.0
  O2-  O128  1  0.08500000  0.69660000  0.79066667  1.0
  O2-  O129  1  0.58500000  0.69660000  0.45733333  1.0
  O2-  O130  1  0.58133488  0.70385472  0.12380881  1.0
  O2-  O131  1  0.58500000  0.69660000  0.79066667  1.0
  O2-  O132  1  0.08500000  0.80340000  0.62400000  1.0
  O2-  O133  1  0.08500000  0.80340000  0.29066667  1.0
  O2-  O134  1  0.08500000  0.80340000  0.95733333  1.0
  O2-  O135  1  0.58658333  0.80038290  0.62876658  1.0
  O2-  O136  1  0.58500000  0.80340000  0.29066667  1.0
  O2-  O137  1  0.58500000  0.80340000  0.95733333  1.0
  O2-  O138  1  0.41261866  0.29841946  0.71086160  1.0
  O2-  O139  1  0.41500000  0.30340000  0.37600000  1.0
  O2-  O140  1  0.41500000  0.30340000  0.04266667  1.0
  O2-  O141  1  0.91500000  0.30340000  0.70933333  1.0
  O2-  O142  1  0.91258572  0.30409472  0.37278344  1.0
  O2-  O143  1  0.91500000  0.30340000  0.04266667  1.0
  O2-  O144  1  0.32209821  0.88308626  0.55593578  1.0
  O2-  O145  1  0.31650000  0.88330000  0.22333333  1.0
  O2-  O146  1  0.31650000  0.88330000  0.89000000  1.0
  O2-  O147  1  0.81650000  0.88330000  0.55666667  1.0
  O2-  O148  1  0.81650000  0.88330000  0.22333333  1.0
  O2-  O149  1  0.81650000  0.88330000  0.89000000  1.0
  O2-  O150  1  0.17489283  0.38002284  0.44381755  1.0
  O2-  O151  1  0.18350000  0.38330000  0.11000000  1.0
  O2-  O152  1  0.18350000  0.38330000  0.77666667  1.0
  O2-  O153  1  0.68350000  0.38330000  0.44333333  1.0
  O2-  O154  1  0.68350000  0.38330000  0.11000000  1.0
  O2-  O155  1  0.68350000  0.38330000  0.77666667  1.0
  O2-  O156  1  0.18350000  0.11670000  0.61000000  1.0
  O2-  O157  1  0.18350000  0.11670000  0.27666667  1.0
  O2-  O158  1  0.18350000  0.11670000  0.94333333  1.0
  O2-  O159  1  0.68350000  0.11670000  0.61000000  1.0
  O2-  O160  1  0.68350000  0.11670000  0.27666667  1.0
  O2-  O161  1  0.68261311  0.11632078  0.94076446  1.0
  O2-  O162  1  0.31650000  0.61670000  0.72333333  1.0
  O2-  O163  1  0.31650000  0.61670000  0.39000000  1.0
  O2-  O164  1  0.31650000  0.61670000  0.05666667  1.0
  O2-  O165  1  0.81650000  0.61670000  0.72333333  1.0
  O2-  O166  1  0.81650000  0.61670000  0.39000000  1.0
  O2-  O167  1  0.81650000  0.61670000  0.05666667  1.0
  O2-  O168  1  0.43100000  0.11520000  0.69433333  1.0
  O2-  O169  1  0.43303690  0.12026128  0.36386030  1.0
  O2-  O170  1  0.43100000  0.11520000  0.02766667  1.0
  O2-  O171  1  0.93547972  0.11672223  0.69501868  1.0
  O2-  O172  1  0.93019163  0.11689549  0.35747733  1.0
  O2-  O173  1  0.93100000  0.11520000  0.02766667  1.0
  O2-  O174  1  0.06900000  0.61520000  0.63900000  1.0
  O2-  O175  1  0.06900000  0.61520000  0.30566667  1.0
  O2-  O176  1  0.06900000  0.61520000  0.97233333  1.0
  O2-  O177  1  0.56690822  0.61529291  0.63425761  1.0
  O2-  O178  1  0.56900000  0.61520000  0.30566667  1.0
  O2-  O179  1  0.56900000  0.61520000  0.97233333  1.0
  O2-  O180  1  0.07367072  0.88521405  0.47303871  1.0
  O2-  O181  1  0.06900000  0.88480000  0.13900000  1.0
  O2-  O182  1  0.07222749  0.88297466  0.80216327  1.0
  O2-  O183  1  0.57119104  0.89062589  0.47432665  1.0
  O2-  O184  1  0.56900000  0.88480000  0.13900000  1.0
  O2-  O185  1  0.56900000  0.88480000  0.80566667  1.0
  O2-  O186  1  0.43067078  0.39042218  0.52361303  1.0
  O2-  O187  1  0.42925349  0.38161015  0.19335409  1.0
  O2-  O188  1  0.43100000  0.38480000  0.86100000  1.0
  O2-  O189  1  0.92726899  0.38083740  0.53141266  1.0
  O2-  O190  1  0.93100000  0.38480000  0.19433333  1.0
  O2-  O191  1  0.93100000  0.38480000  0.86100000  1.0
