# generated using pymatgen
data_LiSbO2
_symmetry_space_group_name_H-M   'P 1'
_cell_length_a   16.60443158
_cell_length_b   9.63637199
_cell_length_c   17.72159574
_cell_angle_alpha   90.00000000
_cell_angle_beta   90.00000000
_cell_angle_gamma   90.06100000
_symmetry_Int_Tables_number   1
_chemical_formula_structural   LiSbO2
_chemical_formula_sum   'Li48 Sb48 O96'
_cell_volume   2835.56853645
_cell_formula_units_Z   48
loop_
 _symmetry_equiv_pos_site_id
 _symmetry_equiv_pos_as_xyz
  1  'x, y, z'
loop_
 _atom_type_symbol
 _atom_type_oxidation_number
  Li+  1.0
  Sb3+  3.0
  O2-  -2.0
loop_
 _atom_site_type_symbol
 _atom_site_label
 _atom_site_symmetry_multiplicity
 _atom_site_fract_x
 _atom_site_fract_y
 _atom_site_fract_z
 _atom_site_occupancy
  Li+  Li0  1  0.84733333  0.29366667  0.71900000  1.0
  Li+  Li1  1  0.51400000  0.29366667  0.71900000  1.0
  Li+  Li2  1  0.18066667  0.29366667  0.71900000  1.0
  Li+  Li3  1  0.84733333  0.79366667  0.71900000  1.0
  Li+  Li4  1  0.51400000  0.79366667  0.71900000  1.0
  Li+  Li5  1  0.18066667  0.79366667  0.71900000  1.0
  Li+  Li6  1  0.98600000  0.53966667  0.21900000  1.0
  Li+  Li7  1  0.65266667  0.53966667  0.21900000  1.0
  Li+  Li8  1  0.31933333  0.53966667  0.21900000  1.0
  Li+  Li9  1  0.98600000  0.03966667  0.21900000  1.0
  Li+  Li10  1  0.65266667  0.03966667  0.21900000  1.0
  Li+  Li11  1  0.31933333  0.03966667  0.21900000  1.0
  Li+  Li12  1  0.81933333  0.53966667  0.28100000  1.0
  Li+  Li13  1  0.48600000  0.53966667  0.28100000  1.0
  Li+  Li14  1  0.15266667  0.53966667  0.28100000  1.0
  Li+  Li15  1  0.81933333  0.03966667  0.28100000  1.0
  Li+  Li16  1  0.48600000  0.03966667  0.28100000  1.0
  Li+  Li17  1  0.15266667  0.03966667  0.28100000  1.0
  Li+  Li18  1  0.68066667  0.29366667  0.78100000  1.0
  Li+  Li19  1  0.34733333  0.29366667  0.78100000  1.0
  Li+  Li20  1  0.01400000  0.29366667  0.78100000  1.0
  Li+  Li21  1  0.68066667  0.79366667  0.78100000  1.0
  Li+  Li22  1  0.34733333  0.79366667  0.78100000  1.0
  Li+  Li23  1  0.01400000  0.79366667  0.78100000  1.0
  Li+  Li24  1  0.95866667  0.55166667  0.71100000  1.0
  Li+  Li25  1  0.62533333  0.55166667  0.71100000  1.0
  Li+  Li26  1  0.29200000  0.55166667  0.71100000  1.0
  Li+  Li27  1  0.95866667  0.05166667  0.71100000  1.0
  Li+  Li28  1  0.62533333  0.05166667  0.71100000  1.0
  Li+  Li29  1  0.29200000  0.05166667  0.71100000  1.0
  Li+  Li30  1  0.87466667  0.28166667  0.21100000  1.0
  Li+  Li31  1  0.54133333  0.28166667  0.21100000  1.0
  Li+  Li32  1  0.20800000  0.28166667  0.21100000  1.0
  Li+  Li33  1  0.87466667  0.78166667  0.21100000  1.0
  Li+  Li34  1  0.54133333  0.78166667  0.21100000  1.0
  Li+  Li35  1  0.20800000  0.78166667  0.21100000  1.0
  Li+  Li36  1  0.70800000  0.28166667  0.28900000  1.0
  Li+  Li37  1  0.37466667  0.28166667  0.28900000  1.0
  Li+  Li38  1  0.04133333  0.28166667  0.28900000  1.0
  Li+  Li39  1  0.70800000  0.78166667  0.28900000  1.0
  Li+  Li40  1  0.37466667  0.78166667  0.28900000  1.0
  Li+  Li41  1  0.04133333  0.78166667  0.28900000  1.0
  Li+  Li42  1  0.79200000  0.55166667  0.78900000  1.0
  Li+  Li43  1  0.45866667  0.55166667  0.78900000  1.0
  Li+  Li44  1  0.12533333  0.55166667  0.78900000  1.0
  Li+  Li45  1  0.79200000  0.05166667  0.78900000  1.0
  Li+  Li46  1  0.45866667  0.05166667  0.78900000  1.0
  Li+  Li47  1  0.12533333  0.05166667  0.78900000  1.0
  Sb3+  Sb48  1  0.69036667  0.29616667  0.09940000  1.0
  Sb3+  Sb49  1  0.35703333  0.29616667  0.09940000  1.0
  Sb3+  Sb50  1  0.02370000  0.29616667  0.09940000  1.0
  Sb3+  Sb51  1  0.69036667  0.79616667  0.09940000  1.0
  Sb3+  Sb52  1  0.35703333  0.79616667  0.09940000  1.0
  Sb3+  Sb53  1  0.02370000  0.79616667  0.09940000  1.0
  Sb3+  Sb54  1  0.80963333  0.53716667  0.59940000  1.0
  Sb3+  Sb55  1  0.47630000  0.53716667  0.59940000  1.0
  Sb3+  Sb56  1  0.14296667  0.53716667  0.59940000  1.0
  Sb3+  Sb57  1  0.80963333  0.03716667  0.59940000  1.0
  Sb3+  Sb58  1  0.47630000  0.03716667  0.59940000  1.0
  Sb3+  Sb59  1  0.14296667  0.03716667  0.59940000  1.0
  Sb3+  Sb60  1  0.97630000  0.53716667  0.90060000  1.0
  Sb3+  Sb61  1  0.64296667  0.53716667  0.90060000  1.0
  Sb3+  Sb62  1  0.30963333  0.53716667  0.90060000  1.0
  Sb3+  Sb63  1  0.97630000  0.03716667  0.90060000  1.0
  Sb3+  Sb64  1  0.64296667  0.03716667  0.90060000  1.0
  Sb3+  Sb65  1  0.30963333  0.03716667  0.90060000  1.0
  Sb3+  Sb66  1  0.85703333  0.29616667  0.40060000  1.0
  Sb3+  Sb67  1  0.52370000  0.29616667  0.40060000  1.0
  Sb3+  Sb68  1  0.19036667  0.29616667  0.40060000  1.0
  Sb3+  Sb69  1  0.85703333  0.79616667  0.40060000  1.0
  Sb3+  Sb70  1  0.52370000  0.79616667  0.40060000  1.0
  Sb3+  Sb71  1  0.19036667  0.79616667  0.40060000  1.0
  Sb3+  Sb72  1  0.83133333  0.28516667  0.90320000  1.0
  Sb3+  Sb73  1  0.49800000  0.28516667  0.90320000  1.0
  Sb3+  Sb74  1  0.16466667  0.28516667  0.90320000  1.0
  Sb3+  Sb75  1  0.83133333  0.78516667  0.90320000  1.0
  Sb3+  Sb76  1  0.49800000  0.78516667  0.90320000  1.0
  Sb3+  Sb77  1  0.16466667  0.78516667  0.90320000  1.0
  Sb3+  Sb78  1  0.66866667  0.54816667  0.40320000  1.0
  Sb3+  Sb79  1  0.33533333  0.54816667  0.40320000  1.0
  Sb3+  Sb80  1  0.00200000  0.54816667  0.40320000  1.0
  Sb3+  Sb81  1  0.66866667  0.04816667  0.40320000  1.0
  Sb3+  Sb82  1  0.33533333  0.04816667  0.40320000  1.0
  Sb3+  Sb83  1  0.00200000  0.04816667  0.40320000  1.0
  Sb3+  Sb84  1  0.83533333  0.54816667  0.09680000  1.0
  Sb3+  Sb85  1  0.50200000  0.54816667  0.09680000  1.0
  Sb3+  Sb86  1  0.16866667  0.54816667  0.09680000  1.0
  Sb3+  Sb87  1  0.83533333  0.04816667  0.09680000  1.0
  Sb3+  Sb88  1  0.50200000  0.04816667  0.09680000  1.0
  Sb3+  Sb89  1  0.16866667  0.04816667  0.09680000  1.0
  Sb3+  Sb90  1  0.99800000  0.28516667  0.59680000  1.0
  Sb3+  Sb91  1  0.66466667  0.28516667  0.59680000  1.0
  Sb3+  Sb92  1  0.33133333  0.28516667  0.59680000  1.0
  Sb3+  Sb93  1  0.99800000  0.78516667  0.59680000  1.0
  Sb3+  Sb94  1  0.66466667  0.78516667  0.59680000  1.0
  Sb3+  Sb95  1  0.33133333  0.78516667  0.59680000  1.0
  O2-  O96  1  0.98766667  0.33616667  0.19420000  1.0
  O2-  O97  1  0.65433333  0.33616667  0.19420000  1.0
  O2-  O98  1  0.32100000  0.33616667  0.19420000  1.0
  O2-  O99  1  0.98766667  0.83616667  0.19420000  1.0
  O2-  O100  1  0.65433333  0.83616667  0.19420000  1.0
  O2-  O101  1  0.32100000  0.83616667  0.19420000  1.0
  O2-  O102  1  0.84566667  0.49716667  0.69420000  1.0
  O2-  O103  1  0.51233333  0.49716667  0.69420000  1.0
  O2-  O104  1  0.17900000  0.49716667  0.69420000  1.0
  O2-  O105  1  0.84566667  0.99716667  0.69420000  1.0
  O2-  O106  1  0.51233333  0.99716667  0.69420000  1.0
  O2-  O107  1  0.17900000  0.99716667  0.69420000  1.0
  O2-  O108  1  0.67900000  0.49716667  0.80580000  1.0
  O2-  O109  1  0.34566667  0.49716667  0.80580000  1.0
  O2-  O110  1  0.01233333  0.49716667  0.80580000  1.0
  O2-  O111  1  0.67900000  0.99716667  0.80580000  1.0
  O2-  O112  1  0.34566667  0.99716667  0.80580000  1.0
  O2-  O113  1  0.01233333  0.99716667  0.80580000  1.0
  O2-  O114  1  0.82100000  0.33616667  0.30580000  1.0
  O2-  O115  1  0.48766667  0.33616667  0.30580000  1.0
  O2-  O116  1  0.15433333  0.33616667  0.30580000  1.0
  O2-  O117  1  0.82100000  0.83616667  0.30580000  1.0
  O2-  O118  1  0.48766667  0.83616667  0.30580000  1.0
  O2-  O119  1  0.15433333  0.83616667  0.30580000  1.0
  O2-  O120  1  0.79266667  0.25166667  0.80340000  1.0
  O2-  O121  1  0.45933333  0.25166667  0.80340000  1.0
  O2-  O122  1  0.12600000  0.25166667  0.80340000  1.0
  O2-  O123  1  0.79266667  0.75166667  0.80340000  1.0
  O2-  O124  1  0.45933333  0.75166667  0.80340000  1.0
  O2-  O125  1  0.12600000  0.75166667  0.80340000  1.0
  O2-  O126  1  0.70733333  0.58166667  0.30340000  1.0
  O2-  O127  1  0.37400000  0.58166667  0.30340000  1.0
  O2-  O128  1  0.04066667  0.58166667  0.30340000  1.0
  O2-  O129  1  0.70733333  0.08166667  0.30340000  1.0
  O2-  O130  1  0.37400000  0.08166667  0.30340000  1.0
  O2-  O131  1  0.04066667  0.08166667  0.30340000  1.0
  O2-  O132  1  0.87400000  0.58166667  0.19660000  1.0
  O2-  O133  1  0.54066667  0.58166667  0.19660000  1.0
  O2-  O134  1  0.20733333  0.58166667  0.19660000  1.0
  O2-  O135  1  0.87400000  0.08166667  0.19660000  1.0
  O2-  O136  1  0.54066667  0.08166667  0.19660000  1.0
  O2-  O137  1  0.20733333  0.08166667  0.19660000  1.0
  O2-  O138  1  0.95933333  0.25166667  0.69660000  1.0
  O2-  O139  1  0.62600000  0.25166667  0.69660000  1.0
  O2-  O140  1  0.29266667  0.25166667  0.69660000  1.0
  O2-  O141  1  0.95933333  0.75166667  0.69660000  1.0
  O2-  O142  1  0.62600000  0.75166667  0.69660000  1.0
  O2-  O143  1  0.29266667  0.75166667  0.69660000  1.0
  O2-  O144  1  0.80666667  0.35016667  0.11670000  1.0
  O2-  O145  1  0.47333333  0.35016667  0.11670000  1.0
  O2-  O146  1  0.14000000  0.35016667  0.11670000  1.0
  O2-  O147  1  0.80666667  0.85016667  0.11670000  1.0
  O2-  O148  1  0.47333333  0.85016667  0.11670000  1.0
  O2-  O149  1  0.14000000  0.85016667  0.11670000  1.0
  O2-  O150  1  0.69333333  0.48316667  0.61670000  1.0
  O2-  O151  1  0.36000000  0.48316667  0.61670000  1.0
  O2-  O152  1  0.02666667  0.48316667  0.61670000  1.0
  O2-  O153  1  0.69333333  0.98316667  0.61670000  1.0
  O2-  O154  1  0.36000000  0.98316667  0.61670000  1.0
  O2-  O155  1  0.02666667  0.98316667  0.61670000  1.0
  O2-  O156  1  0.86000000  0.48316667  0.88330000  1.0
  O2-  O157  1  0.52666667  0.48316667  0.88330000  1.0
  O2-  O158  1  0.19333333  0.48316667  0.88330000  1.0
  O2-  O159  1  0.86000000  0.98316667  0.88330000  1.0
  O2-  O160  1  0.52666667  0.98316667  0.88330000  1.0
  O2-  O161  1  0.19333333  0.98316667  0.88330000  1.0
  O2-  O162  1  0.97333333  0.35016667  0.38330000  1.0
  O2-  O163  1  0.64000000  0.35016667  0.38330000  1.0
  O2-  O164  1  0.30666667  0.35016667  0.38330000  1.0
  O2-  O165  1  0.97333333  0.85016667  0.38330000  1.0
  O2-  O166  1  0.64000000  0.85016667  0.38330000  1.0
  O2-  O167  1  0.30666667  0.85016667  0.38330000  1.0
  O2-  O168  1  0.94433333  0.23566667  0.88480000  1.0
  O2-  O169  1  0.61100000  0.23566667  0.88480000  1.0
  O2-  O170  1  0.27766667  0.23566667  0.88480000  1.0
  O2-  O171  1  0.94433333  0.73566667  0.88480000  1.0
  O2-  O172  1  0.61100000  0.73566667  0.88480000  1.0
  O2-  O173  1  0.27766667  0.73566667  0.88480000  1.0
  O2-  O174  1  0.88900000  0.59766667  0.38480000  1.0
  O2-  O175  1  0.55566667  0.59766667  0.38480000  1.0
  O2-  O176  1  0.22233333  0.59766667  0.38480000  1.0
  O2-  O177  1  0.88900000  0.09766667  0.38480000  1.0
  O2-  O178  1  0.55566667  0.09766667  0.38480000  1.0
  O2-  O179  1  0.22233333  0.09766667  0.38480000  1.0
  O2-  O180  1  0.72233333  0.59766667  0.11520000  1.0
  O2-  O181  1  0.38900000  0.59766667  0.11520000  1.0
  O2-  O182  1  0.05566667  0.59766667  0.11520000  1.0
  O2-  O183  1  0.72233333  0.09766667  0.11520000  1.0
  O2-  O184  1  0.38900000  0.09766667  0.11520000  1.0
  O2-  O185  1  0.05566667  0.09766667  0.11520000  1.0
  O2-  O186  1  0.77766667  0.23566667  0.61520000  1.0
  O2-  O187  1  0.44433333  0.23566667  0.61520000  1.0
  O2-  O188  1  0.11100000  0.23566667  0.61520000  1.0
  O2-  O189  1  0.77766667  0.73566667  0.61520000  1.0
  O2-  O190  1  0.44433333  0.73566667  0.61520000  1.0
  O2-  O191  1  0.11100000  0.73566667  0.61520000  1.0
