# generated using pymatgen
data_LiSbO2
_symmetry_space_group_name_H-M   'P 1'
_cell_length_a   9.71000000
_cell_length_b   16.73130000
_cell_length_c   17.85700000
_cell_angle_alpha   90.00000000
_cell_angle_beta   90.00000000
_cell_angle_gamma   90.06100000
_symmetry_Int_Tables_number   1
_chemical_formula_structural   LiSbO2
_chemical_formula_sum   'Li48 Sb48 O96'
_cell_volume   2901.06305786
_cell_formula_units_Z   48
loop_
 _symmetry_equiv_pos_site_id
 _symmetry_equiv_pos_as_xyz
  1  'x, y, z'
loop_
 _atom_type_symbol
 _atom_type_oxidation_number
  Li+  1.0
  Sb3+  3.0
  O2-  -2.0
loop_
 _atom_site_type_symbol
 _atom_site_label
 _atom_site_symmetry_multiplicity
 _atom_site_fract_x
 _atom_site_fract_y
 _atom_site_fract_z
 _atom_site_occupancy
  Li+  Li1  1  0.37300000  0.15266667  0.71900000  1.0
  Li+  Li1  1  0.37300000  0.48600000  0.71900000  1.0
  Li+  Li1  1  0.37300000  0.81933333  0.71900000  1.0
  Li+  Li1  1  0.87300000  0.15266667  0.71900000  1.0
  Li+  Li1  1  0.87300000  0.48600000  0.71900000  1.0
  Li+  Li1  1  0.87300000  0.81933333  0.71900000  1.0
  Li+  Li1  1  0.12700000  0.01400000  0.21900000  1.0
  Li+  Li1  1  0.12700000  0.34733333  0.21900000  1.0
  Li+  Li1  1  0.12700000  0.68066667  0.21900000  1.0
  Li+  Li1  1  0.62700000  0.01400000  0.21900000  1.0
  Li+  Li1  1  0.62700000  0.34733333  0.21900000  1.0
  Li+  Li1  1  0.62700000  0.68066667  0.21900000  1.0
  Li+  Li1  1  0.12700000  0.18066667  0.28100000  1.0
  Li+  Li1  1  0.12700000  0.51400000  0.28100000  1.0
  Li+  Li1  1  0.12700000  0.84733333  0.28100000  1.0
  Li+  Li1  1  0.62700000  0.18066667  0.28100000  1.0
  Li+  Li1  1  0.62700000  0.51400000  0.28100000  1.0
  Li+  Li1  1  0.62700000  0.84733333  0.28100000  1.0
  Li+  Li1  1  0.37300000  0.31933333  0.78100000  1.0
  Li+  Li1  1  0.37300000  0.65266667  0.78100000  1.0
  Li+  Li1  1  0.37300000  0.98600000  0.78100000  1.0
  Li+  Li1  1  0.87300000  0.31933333  0.78100000  1.0
  Li+  Li1  1  0.87300000  0.65266667  0.78100000  1.0
  Li+  Li1  1  0.87300000  0.98600000  0.78100000  1.0
  Li+  Li2  1  0.11500000  0.04133333  0.71100000  1.0
  Li+  Li2  1  0.11500000  0.37466667  0.71100000  1.0
  Li+  Li2  1  0.11500000  0.70800000  0.71100000  1.0
  Li+  Li2  1  0.61500000  0.04133333  0.71100000  1.0
  Li+  Li2  1  0.61500000  0.37466667  0.71100000  1.0
  Li+  Li2  1  0.61500000  0.70800000  0.71100000  1.0
  Li+  Li2  1  0.38500000  0.12533333  0.21100000  1.0
  Li+  Li2  1  0.38500000  0.45866667  0.21100000  1.0
  Li+  Li2  1  0.38500000  0.79200000  0.21100000  1.0
  Li+  Li2  1  0.88500000  0.12533333  0.21100000  1.0
  Li+  Li2  1  0.88500000  0.45866667  0.21100000  1.0
  Li+  Li2  1  0.88500000  0.79200000  0.21100000  1.0
  Li+  Li2  1  0.38500000  0.29200000  0.28900000  1.0
  Li+  Li2  1  0.38500000  0.62533333  0.28900000  1.0
  Li+  Li2  1  0.38500000  0.95866667  0.28900000  1.0
  Li+  Li2  1  0.88500000  0.29200000  0.28900000  1.0
  Li+  Li2  1  0.88500000  0.62533333  0.28900000  1.0
  Li+  Li2  1  0.88500000  0.95866667  0.28900000  1.0
  Li+  Li2  1  0.11500000  0.20800000  0.78900000  1.0
  Li+  Li2  1  0.11500000  0.54133333  0.78900000  1.0
  Li+  Li2  1  0.11500000  0.87466667  0.78900000  1.0
  Li+  Li2  1  0.61500000  0.20800000  0.78900000  1.0
  Li+  Li2  1  0.61500000  0.54133333  0.78900000  1.0
  Li+  Li2  1  0.61500000  0.87466667  0.78900000  1.0
  Sb3+  Sb1  1  0.37050000  0.30963333  0.09940000  1.0
  Sb3+  Sb1  1  0.37050000  0.64296667  0.09940000  1.0
  Sb3+  Sb1  1  0.37050000  0.97630000  0.09940000  1.0
  Sb3+  Sb1  1  0.87050000  0.30963333  0.09940000  1.0
  Sb3+  Sb1  1  0.87050000  0.64296667  0.09940000  1.0
  Sb3+  Sb1  1  0.87050000  0.97630000  0.09940000  1.0
  Sb3+  Sb1  1  0.12950000  0.19036667  0.59940000  1.0
  Sb3+  Sb1  1  0.12950000  0.52370000  0.59940000  1.0
  Sb3+  Sb1  1  0.12950000  0.85703333  0.59940000  1.0
  Sb3+  Sb1  1  0.62950000  0.19036667  0.59940000  1.0
  Sb3+  Sb1  1  0.62950000  0.52370000  0.59940000  1.0
  Sb3+  Sb1  1  0.62950000  0.85703333  0.59940000  1.0
  Sb3+  Sb1  1  0.12950000  0.02370000  0.90060000  1.0
  Sb3+  Sb1  1  0.12950000  0.35703333  0.90060000  1.0
  Sb3+  Sb1  1  0.12950000  0.69036667  0.90060000  1.0
  Sb3+  Sb1  1  0.62950000  0.02370000  0.90060000  1.0
  Sb3+  Sb1  1  0.62950000  0.35703333  0.90060000  1.0
  Sb3+  Sb1  1  0.62950000  0.69036667  0.90060000  1.0
  Sb3+  Sb1  1  0.37050000  0.14296667  0.40060000  1.0
  Sb3+  Sb1  1  0.37050000  0.47630000  0.40060000  1.0
  Sb3+  Sb1  1  0.37050000  0.80963333  0.40060000  1.0
  Sb3+  Sb1  1  0.87050000  0.14296667  0.40060000  1.0
  Sb3+  Sb1  1  0.87050000  0.47630000  0.40060000  1.0
  Sb3+  Sb1  1  0.87050000  0.80963333  0.40060000  1.0
  Sb3+  Sb2  1  0.38150000  0.16866667  0.90320000  1.0
  Sb3+  Sb2  1  0.38150000  0.50200000  0.90320000  1.0
  Sb3+  Sb2  1  0.38150000  0.83533333  0.90320000  1.0
  Sb3+  Sb2  1  0.88150000  0.16866667  0.90320000  1.0
  Sb3+  Sb2  1  0.88150000  0.50200000  0.90320000  1.0
  Sb3+  Sb2  1  0.88150000  0.83533333  0.90320000  1.0
  Sb3+  Sb2  1  0.11850000  0.33133333  0.40320000  1.0
  Sb3+  Sb2  1  0.11850000  0.66466667  0.40320000  1.0
  Sb3+  Sb2  1  0.11850000  0.99800000  0.40320000  1.0
  Sb3+  Sb2  1  0.61850000  0.33133333  0.40320000  1.0
  Sb3+  Sb2  1  0.61850000  0.66466667  0.40320000  1.0
  Sb3+  Sb2  1  0.61850000  0.99800000  0.40320000  1.0
  Sb3+  Sb2  1  0.11850000  0.16466667  0.09680000  1.0
  Sb3+  Sb2  1  0.11850000  0.49800000  0.09680000  1.0
  Sb3+  Sb2  1  0.11850000  0.83133333  0.09680000  1.0
  Sb3+  Sb2  1  0.61850000  0.16466667  0.09680000  1.0
  Sb3+  Sb2  1  0.61850000  0.49800000  0.09680000  1.0
  Sb3+  Sb2  1  0.61850000  0.83133333  0.09680000  1.0
  Sb3+  Sb2  1  0.38150000  0.00200000  0.59680000  1.0
  Sb3+  Sb2  1  0.38150000  0.33533333  0.59680000  1.0
  Sb3+  Sb2  1  0.38150000  0.66866667  0.59680000  1.0
  Sb3+  Sb2  1  0.88150000  0.00200000  0.59680000  1.0
  Sb3+  Sb2  1  0.88150000  0.33533333  0.59680000  1.0
  Sb3+  Sb2  1  0.88150000  0.66866667  0.59680000  1.0
  O2-  O1  1  0.33050000  0.01233333  0.19420000  1.0
  O2-  O1  1  0.33050000  0.34566667  0.19420000  1.0
  O2-  O1  1  0.33050000  0.67900000  0.19420000  1.0
  O2-  O1  1  0.83050000  0.01233333  0.19420000  1.0
  O2-  O1  1  0.83050000  0.34566667  0.19420000  1.0
  O2-  O1  1  0.83050000  0.67900000  0.19420000  1.0
  O2-  O1  1  0.16950000  0.15433333  0.69420000  1.0
  O2-  O1  1  0.16950000  0.48766667  0.69420000  1.0
  O2-  O1  1  0.16950000  0.82100000  0.69420000  1.0
  O2-  O1  1  0.66950000  0.15433333  0.69420000  1.0
  O2-  O1  1  0.66950000  0.48766667  0.69420000  1.0
  O2-  O1  1  0.66950000  0.82100000  0.69420000  1.0
  O2-  O1  1  0.16950000  0.32100000  0.80580000  1.0
  O2-  O1  1  0.16950000  0.65433333  0.80580000  1.0
  O2-  O1  1  0.16950000  0.98766667  0.80580000  1.0
  O2-  O1  1  0.66950000  0.32100000  0.80580000  1.0
  O2-  O1  1  0.66950000  0.65433333  0.80580000  1.0
  O2-  O1  1  0.66950000  0.98766667  0.80580000  1.0
  O2-  O1  1  0.33050000  0.17900000  0.30580000  1.0
  O2-  O1  1  0.33050000  0.51233333  0.30580000  1.0
  O2-  O1  1  0.33050000  0.84566667  0.30580000  1.0
  O2-  O1  1  0.83050000  0.17900000  0.30580000  1.0
  O2-  O1  1  0.83050000  0.51233333  0.30580000  1.0
  O2-  O1  1  0.83050000  0.84566667  0.30580000  1.0
  O2-  O2  1  0.41500000  0.20733333  0.80340000  1.0
  O2-  O2  1  0.41500000  0.54066667  0.80340000  1.0
  O2-  O2  1  0.41500000  0.87400000  0.80340000  1.0
  O2-  O2  1  0.91500000  0.20733333  0.80340000  1.0
  O2-  O2  1  0.91500000  0.54066667  0.80340000  1.0
  O2-  O2  1  0.91500000  0.87400000  0.80340000  1.0
  O2-  O2  1  0.08500000  0.29266667  0.30340000  1.0
  O2-  O2  1  0.08500000  0.62600000  0.30340000  1.0
  O2-  O2  1  0.08500000  0.95933333  0.30340000  1.0
  O2-  O2  1  0.58500000  0.29266667  0.30340000  1.0
  O2-  O2  1  0.58500000  0.62600000  0.30340000  1.0
  O2-  O2  1  0.58500000  0.95933333  0.30340000  1.0
  O2-  O2  1  0.08500000  0.12600000  0.19660000  1.0
  O2-  O2  1  0.08500000  0.45933333  0.19660000  1.0
  O2-  O2  1  0.08500000  0.79266667  0.19660000  1.0
  O2-  O2  1  0.58500000  0.12600000  0.19660000  1.0
  O2-  O2  1  0.58500000  0.45933333  0.19660000  1.0
  O2-  O2  1  0.58500000  0.79266667  0.19660000  1.0
  O2-  O2  1  0.41500000  0.04066667  0.69660000  1.0
  O2-  O2  1  0.41500000  0.37400000  0.69660000  1.0
  O2-  O2  1  0.41500000  0.70733333  0.69660000  1.0
  O2-  O2  1  0.91500000  0.04066667  0.69660000  1.0
  O2-  O2  1  0.91500000  0.37400000  0.69660000  1.0
  O2-  O2  1  0.91500000  0.70733333  0.69660000  1.0
  O2-  O3  1  0.31650000  0.19333333  0.11670000  1.0
  O2-  O3  1  0.31650000  0.52666667  0.11670000  1.0
  O2-  O3  1  0.31650000  0.86000000  0.11670000  1.0
  O2-  O3  1  0.81650000  0.19333333  0.11670000  1.0
  O2-  O3  1  0.81650000  0.52666667  0.11670000  1.0
  O2-  O3  1  0.81650000  0.86000000  0.11670000  1.0
  O2-  O3  1  0.18350000  0.30666667  0.61670000  1.0
  O2-  O3  1  0.18350000  0.64000000  0.61670000  1.0
  O2-  O3  1  0.18350000  0.97333333  0.61670000  1.0
  O2-  O3  1  0.68350000  0.30666667  0.61670000  1.0
  O2-  O3  1  0.68350000  0.64000000  0.61670000  1.0
  O2-  O3  1  0.68350000  0.97333333  0.61670000  1.0
  O2-  O3  1  0.18350000  0.14000000  0.88330000  1.0
  O2-  O3  1  0.18350000  0.47333333  0.88330000  1.0
  O2-  O3  1  0.18350000  0.80666667  0.88330000  1.0
  O2-  O3  1  0.68350000  0.14000000  0.88330000  1.0
  O2-  O3  1  0.68350000  0.47333333  0.88330000  1.0
  O2-  O3  1  0.68350000  0.80666667  0.88330000  1.0
  O2-  O3  1  0.31650000  0.02666667  0.38330000  1.0
  O2-  O3  1  0.31650000  0.36000000  0.38330000  1.0
  O2-  O3  1  0.31650000  0.69333333  0.38330000  1.0
  O2-  O3  1  0.81650000  0.02666667  0.38330000  1.0
  O2-  O3  1  0.81650000  0.36000000  0.38330000  1.0
  O2-  O3  1  0.81650000  0.69333333  0.38330000  1.0
  O2-  O4  1  0.43100000  0.05566667  0.88480000  1.0
  O2-  O4  1  0.43100000  0.38900000  0.88480000  1.0
  O2-  O4  1  0.43100000  0.72233333  0.88480000  1.0
  O2-  O4  1  0.93100000  0.05566667  0.88480000  1.0
  O2-  O4  1  0.93100000  0.38900000  0.88480000  1.0
  O2-  O4  1  0.93100000  0.72233333  0.88480000  1.0
  O2-  O4  1  0.06900000  0.11100000  0.38480000  1.0
  O2-  O4  1  0.06900000  0.44433333  0.38480000  1.0
  O2-  O4  1  0.06900000  0.77766667  0.38480000  1.0
  O2-  O4  1  0.56900000  0.11100000  0.38480000  1.0
  O2-  O4  1  0.56900000  0.44433333  0.38480000  1.0
  O2-  O4  1  0.56900000  0.77766667  0.38480000  1.0
  O2-  O4  1  0.06900000  0.27766667  0.11520000  1.0
  O2-  O4  1  0.06900000  0.61100000  0.11520000  1.0
  O2-  O4  1  0.06900000  0.94433333  0.11520000  1.0
  O2-  O4  1  0.56900000  0.27766667  0.11520000  1.0
  O2-  O4  1  0.56900000  0.61100000  0.11520000  1.0
  O2-  O4  1  0.56900000  0.94433333  0.11520000  1.0
  O2-  O4  1  0.43100000  0.22233333  0.61520000  1.0
  O2-  O4  1  0.43100000  0.55566667  0.61520000  1.0
  O2-  O4  1  0.43100000  0.88900000  0.61520000  1.0
  O2-  O4  1  0.93100000  0.22233333  0.61520000  1.0
  O2-  O4  1  0.93100000  0.55566667  0.61520000  1.0
  O2-  O4  1  0.93100000  0.88900000  0.61520000  1.0
