# generated using pymatgen
data_Li29Al4(Ge3S20)2
_symmetry_space_group_name_H-M   'P 1'
_cell_length_a   7.94780000
_cell_length_b   15.89560000
_cell_length_c   30.77640000
_cell_angle_alpha   90.00000000
_cell_angle_beta   90.00000000
_cell_angle_gamma   120.00000000
_symmetry_Int_Tables_number   1
_chemical_formula_structural   Li29Al4(Ge3S20)2
_chemical_formula_sum   'Li58 Al8 Ge12 S80'
_cell_volume   3367.22630131
_cell_formula_units_Z   2
loop_
 _symmetry_equiv_pos_site_id
 _symmetry_equiv_pos_as_xyz
  1  'x, y, z'
loop_
 _atom_type_symbol
 _atom_type_oxidation_number
  Li+  1.0
  Al3+  3.0
  Ge4+  4.0
  S2-  -2.0
loop_
 _atom_site_type_symbol
 _atom_site_label
 _atom_site_symmetry_multiplicity
 _atom_site_fract_x
 _atom_site_fract_y
 _atom_site_fract_z
 _atom_site_occupancy
  Li+  Li0  1  0.16710000  0.16720000  0.13688000  1.0
  Li+  Li0  1  0.16710000  0.66720000  0.13688000  1.0
  Li+  Li1  1  0.16730000  0.16720000  0.33688000  1.0
  Li+  Li1  1  0.16730000  0.66720000  0.33688000  1.0
  Li+  Li2  1  0.16710000  0.41635000  0.33688000  1.0
  Li+  Li2  1  0.16710000  0.91635000  0.33688000  1.0
  Li+  Li3  1  0.16710000  0.41635000  0.53688000  1.0
  Li+  Li3  1  0.16710000  0.91635000  0.53688000  1.0
  Li+  Li4  1  0.83270000  0.08355000  0.46312000  1.0
  Li+  Li4  1  0.83270000  0.58355000  0.46312000  1.0
  Li+  Li5  1  0.83270000  0.33280000  0.46312000  1.0
  Li+  Li5  1  0.83270000  0.83280000  0.46312000  1.0
  Li+  Li6  1  0.83270000  0.33280000  0.66312000  1.0
  Li+  Li6  1  0.83270000  0.83280000  0.66312000  1.0
  Li+  Li7  1  0.51513000  0.01513000  0.29630000  1.0
  Li+  Li7  1  0.51513000  0.51513000  0.29630000  1.0
  Li+  Li8  1  0.51513000  0.24243500  0.69630000  1.0
  Li+  Li8  1  0.51513000  0.74243500  0.69630000  1.0
  Li+  Li9  1  0.03026000  0.25756500  0.10370000  1.0
  Li+  Li9  1  0.03026000  0.75756500  0.10370000  1.0
  Li+  Li10  1  0.03026000  0.25756500  0.50370000  1.0
  Li+  Li10  1  0.03026000  0.75756500  0.50370000  1.0
  Li+  Li11  1  0.48487000  0.48487000  0.10370000  1.0
  Li+  Li11  1  0.48487000  0.98487000  0.10370000  1.0
  Li+  Li12  1  0.48487000  0.48487000  0.70370000  1.0
  Li+  Li12  1  0.48487000  0.98487000  0.70370000  1.0
  Li+  Li13  1  0.48487000  0.25756500  0.90370000  1.0
  Li+  Li13  1  0.48487000  0.75756500  0.90370000  1.0
  Li+  Li14  1  0.15956000  0.42023000  0.56778000  1.0
  Li+  Li14  1  0.15956000  0.92023000  0.56778000  1.0
  Li+  Li15  1  0.15956000  0.42023000  0.96778000  1.0
  Li+  Li15  1  0.15956000  0.92023000  0.96778000  1.0
  Li+  Li16  1  0.68090000  0.42022000  0.16778000  1.0
  Li+  Li16  1  0.68090000  0.92022000  0.16778000  1.0
  Li+  Li17  1  0.68090000  0.42022000  0.36778000  1.0
  Li+  Li17  1  0.68090000  0.92022000  0.36778000  1.0
  Li+  Li18  1  0.68090000  0.42022000  0.76778000  1.0
  Li+  Li18  1  0.68090000  0.92022000  0.76778000  1.0
  Li+  Li19  1  0.15954000  0.15955000  0.76778000  1.0
  Li+  Li19  1  0.15954000  0.65955000  0.76778000  1.0
  Li+  Li20  1  0.15954000  0.15955000  0.96778000  1.0
  Li+  Li20  1  0.15954000  0.65955000  0.96778000  1.0
  Li+  Li21  1  0.84044000  0.07977000  0.63222000  1.0
  Li+  Li21  1  0.84044000  0.57977000  0.63222000  1.0
  Li+  Li22  1  0.84044000  0.07977000  0.83222000  1.0
  Li+  Li22  1  0.84044000  0.57977000  0.83222000  1.0
  Li+  Li23  1  0.31910000  0.07978000  0.03222000  1.0
  Li+  Li23  1  0.31910000  0.57978000  0.03222000  1.0
  Li+  Li24  1  0.31910000  0.07978000  0.23222000  1.0
  Li+  Li24  1  0.31910000  0.57978000  0.23222000  1.0
  Li+  Li25  1  0.31910000  0.07978000  0.43222000  1.0
  Li+  Li25  1  0.31910000  0.57978000  0.43222000  1.0
  Li+  Li26  1  0.84046000  0.34045000  0.03222000  1.0
  Li+  Li26  1  0.84046000  0.84045000  0.03222000  1.0
  Li+  Li27  1  0.84046000  0.34045000  0.43222000  1.0
  Li+  Li27  1  0.84046000  0.84045000  0.43222000  1.0
  Li+  Li28  1  0.84046000  0.34045000  0.83222000  1.0
  Li+  Li28  1  0.84046000  0.84045000  0.83222000  1.0
  Al3+  Al29  1  0.66666667  0.16666667  0.57327200  1.0
  Al3+  Al29  1  0.66666667  0.66666667  0.57327200  1.0
  Al3+  Al30  1  0.33333333  0.33333333  0.22672800  1.0
  Al3+  Al30  1  0.33333333  0.83333333  0.22672800  1.0
  Al3+  Al31  1  0.33333333  0.33333333  0.42672800  1.0
  Al3+  Al31  1  0.33333333  0.83333333  0.42672800  1.0
  Al3+  Al32  1  0.33333333  0.33333333  0.62672800  1.0
  Al3+  Al32  1  0.33333333  0.83333333  0.62672800  1.0
  Ge4+  Ge33  1  0.66666667  0.16666667  0.17327200  1.0
  Ge4+  Ge33  1  0.66666667  0.66666667  0.17327200  1.0
  Ge4+  Ge34  1  0.66666667  0.16666667  0.37327200  1.0
  Ge4+  Ge34  1  0.66666667  0.66666667  0.37327200  1.0
  Ge4+  Ge35  1  0.66666667  0.16666667  0.77327200  1.0
  Ge4+  Ge35  1  0.66666667  0.66666667  0.77327200  1.0
  Ge4+  Ge36  1  0.66666667  0.16666667  0.97327200  1.0
  Ge4+  Ge36  1  0.66666667  0.66666667  0.97327200  1.0
  Ge4+  Ge37  1  0.33333333  0.33333333  0.02672800  1.0
  Ge4+  Ge37  1  0.33333333  0.83333333  0.02672800  1.0
  Ge4+  Ge38  1  0.33333333  0.33333333  0.82672800  1.0
  Ge4+  Ge38  1  0.33333333  0.83333333  0.82672800  1.0
  S2-  S1  1  0.81827000  0.31827000  0.14759600  1.0
  S2-  S1  1  0.81827000  0.81827000  0.14759600  1.0
  S2-  S1  1  0.81827000  0.31827000  0.34759600  1.0
  S2-  S1  1  0.81827000  0.81827000  0.34759600  1.0
  S2-  S1  1  0.81827000  0.31827000  0.54759600  1.0
  S2-  S1  1  0.81827000  0.81827000  0.54759600  1.0
  S2-  S1  1  0.81827000  0.31827000  0.74759600  1.0
  S2-  S1  1  0.81827000  0.81827000  0.74759600  1.0
  S2-  S1  1  0.81827000  0.31827000  0.94759600  1.0
  S2-  S1  1  0.81827000  0.81827000  0.94759600  1.0
  S2-  S1  1  0.81827000  0.09086500  0.14759600  1.0
  S2-  S1  1  0.81827000  0.59086500  0.14759600  1.0
  S2-  S1  1  0.81827000  0.09086500  0.34759600  1.0
  S2-  S1  1  0.81827000  0.59086500  0.34759600  1.0
  S2-  S1  1  0.81827000  0.09086500  0.54759600  1.0
  S2-  S1  1  0.81827000  0.59086500  0.54759600  1.0
  S2-  S1  1  0.81827000  0.09086500  0.74759600  1.0
  S2-  S1  1  0.81827000  0.59086500  0.74759600  1.0
  S2-  S1  1  0.81827000  0.09086500  0.94759600  1.0
  S2-  S1  1  0.81827000  0.59086500  0.94759600  1.0
  S2-  S1  1  0.36346000  0.09086500  0.14759600  1.0
  S2-  S1  1  0.36346000  0.59086500  0.14759600  1.0
  S2-  S1  1  0.36346000  0.09086500  0.34759600  1.0
  S2-  S1  1  0.36346000  0.59086500  0.34759600  1.0
  S2-  S1  1  0.36346000  0.09086500  0.54759600  1.0
  S2-  S1  1  0.36346000  0.59086500  0.54759600  1.0
  S2-  S1  1  0.36346000  0.09086500  0.74759600  1.0
  S2-  S1  1  0.36346000  0.59086500  0.74759600  1.0
  S2-  S1  1  0.36346000  0.09086500  0.94759600  1.0
  S2-  S1  1  0.36346000  0.59086500  0.94759600  1.0
  S2-  S1  1  0.18173000  0.18173000  0.05240400  1.0
  S2-  S1  1  0.18173000  0.68173000  0.05240400  1.0
  S2-  S1  1  0.18173000  0.18173000  0.25240400  1.0
  S2-  S1  1  0.18173000  0.68173000  0.25240400  1.0
  S2-  S1  1  0.18173000  0.18173000  0.45240400  1.0
  S2-  S1  1  0.18173000  0.68173000  0.45240400  1.0
  S2-  S1  1  0.18173000  0.18173000  0.65240400  1.0
  S2-  S1  1  0.18173000  0.68173000  0.65240400  1.0
  S2-  S1  1  0.18173000  0.18173000  0.85240400  1.0
  S2-  S1  1  0.18173000  0.68173000  0.85240400  1.0
  S2-  S1  1  0.18173000  0.40913500  0.05240400  1.0
  S2-  S1  1  0.18173000  0.90913500  0.05240400  1.0
  S2-  S1  1  0.18173000  0.40913500  0.25240400  1.0
  S2-  S1  1  0.18173000  0.90913500  0.25240400  1.0
  S2-  S1  1  0.18173000  0.40913500  0.45240400  1.0
  S2-  S1  1  0.18173000  0.90913500  0.45240400  1.0
  S2-  S1  1  0.18173000  0.40913500  0.65240400  1.0
  S2-  S1  1  0.18173000  0.90913500  0.65240400  1.0
  S2-  S1  1  0.18173000  0.40913500  0.85240400  1.0
  S2-  S1  1  0.18173000  0.90913500  0.85240400  1.0
  S2-  S1  1  0.63654000  0.40913500  0.05240400  1.0
  S2-  S1  1  0.63654000  0.90913500  0.05240400  1.0
  S2-  S1  1  0.63654000  0.40913500  0.25240400  1.0
  S2-  S1  1  0.63654000  0.90913500  0.25240400  1.0
  S2-  S1  1  0.63654000  0.40913500  0.45240400  1.0
  S2-  S1  1  0.63654000  0.90913500  0.45240400  1.0
  S2-  S1  1  0.63654000  0.40913500  0.65240400  1.0
  S2-  S1  1  0.63654000  0.90913500  0.65240400  1.0
  S2-  S1  1  0.63654000  0.40913500  0.85240400  1.0
  S2-  S1  1  0.63654000  0.90913500  0.85240400  1.0
  S2-  S2  1  0.66666667  0.16666667  0.04538800  1.0
  S2-  S2  1  0.66666667  0.66666667  0.04538800  1.0
  S2-  S2  1  0.66666667  0.16666667  0.24538800  1.0
  S2-  S2  1  0.66666667  0.66666667  0.24538800  1.0
  S2-  S2  1  0.66666667  0.16666667  0.44538800  1.0
  S2-  S2  1  0.66666667  0.66666667  0.44538800  1.0
  S2-  S2  1  0.66666667  0.16666667  0.64538800  1.0
  S2-  S2  1  0.66666667  0.66666667  0.64538800  1.0
  S2-  S2  1  0.66666667  0.16666667  0.84538800  1.0
  S2-  S2  1  0.66666667  0.66666667  0.84538800  1.0
  S2-  S2  1  0.33333333  0.33333333  0.15461200  1.0
  S2-  S2  1  0.33333333  0.83333333  0.15461200  1.0
  S2-  S2  1  0.33333333  0.33333333  0.35461200  1.0
  S2-  S2  1  0.33333333  0.83333333  0.35461200  1.0
  S2-  S2  1  0.33333333  0.33333333  0.55461200  1.0
  S2-  S2  1  0.33333333  0.83333333  0.55461200  1.0
  S2-  S2  1  0.33333333  0.33333333  0.75461200  1.0
  S2-  S2  1  0.33333333  0.83333333  0.75461200  1.0
  S2-  S2  1  0.33333333  0.33333333  0.95461200  1.0
  S2-  S2  1  0.33333333  0.83333333  0.95461200  1.0
