# generated using pymatgen
data_Li9La11Ti18Al2O60
_symmetry_space_group_name_H-M   'P 1'
_cell_length_a   7.73940000
_cell_length_b   19.34850000
_cell_length_c   7.73940000
_cell_angle_alpha   90.00000000
_cell_angle_beta   90.00000000
_cell_angle_gamma   90.00000000
_symmetry_Int_Tables_number   1
_chemical_formula_structural   Li9La11Ti18Al2O60
_chemical_formula_sum   'Li9 La11 Ti18 Al2 O60'
_cell_volume   1158.94249670
_cell_formula_units_Z   1
loop_
 _symmetry_equiv_pos_site_id
 _symmetry_equiv_pos_as_xyz
  1  'x, y, z'
loop_
 _atom_type_symbol
 _atom_type_oxidation_number
  Li+  1.0
  La3+  3.0
  Ti4+  4.0
  Al3+  3.0
  O2-  -2.0
loop_
 _atom_site_type_symbol
 _atom_site_label
 _atom_site_symmetry_multiplicity
 _atom_site_fract_x
 _atom_site_fract_y
 _atom_site_fract_z
 _atom_site_occupancy
  Li+  Li0  1  0.25000000  0.10000000  0.50000000  1.0
  Li+  Li1  1  0.25000000  0.90000000  0.00000000  1.0
  Li+  Li2  1  0.25000000  0.50000000  0.00000000  1.0
  Li+  Li3  1  0.75000000  0.90000000  0.50000000  1.0
  Li+  Li4  1  0.75000000  0.70000000  0.50000000  1.0
  Li+  Li5  1  0.75000000  0.30000000  0.50000000  1.0
  Li+  Li6  1  0.75000000  0.10000000  0.50000000  1.0
  Li+  Li7  1  0.75000000  0.50000000  0.00000000  1.0
  Li+  Li8  1  0.74897110  0.29573959  0.99831489  1.0
  La3+  La9  1  0.24769783  0.89995164  0.49868737  1.0
  La3+  La10  1  0.25000000  0.70000000  0.50000000  1.0
  La3+  La11  1  0.25048950  0.50242078  0.50302345  1.0
  La3+  La12  1  0.25000000  0.30000000  0.50000000  1.0
  La3+  La13  1  0.25000000  0.70000000  0.00000000  1.0
  La3+  La14  1  0.25026458  0.30227948  0.00236145  1.0
  La3+  La15  1  0.25000000  0.10000000  0.00000000  1.0
  La3+  La16  1  0.75000000  0.50000000  0.50000000  1.0
  La3+  La17  1  0.75000000  0.90000000  0.00000000  1.0
  La3+  La18  1  0.75000000  0.70000000  0.00000000  1.0
  La3+  La19  1  0.75000000  0.10000000  0.00000000  1.0
  Ti4+  Ti20  1  0.00000000  0.00000000  0.75000000  1.0
  Ti4+  Ti21  1  0.00000000  0.80000000  0.75000000  1.0
  Ti4+  Ti22  1  0.99631016  0.59766362  0.74706949  1.0
  Ti4+  Ti23  1  0.00000000  0.40000000  0.75000000  1.0
  Ti4+  Ti24  1  0.00000000  0.20000000  0.75000000  1.0
  Ti4+  Ti25  1  0.00057889  0.00198223  0.25256582  1.0
  Ti4+  Ti26  1  0.00000000  0.60000000  0.25000000  1.0
  Ti4+  Ti27  1  0.99922047  0.39333862  0.25134631  1.0
  Ti4+  Ti28  1  0.00000000  0.20000000  0.25000000  1.0
  Ti4+  Ti29  1  0.50000000  0.00000000  0.75000000  1.0
  Ti4+  Ti30  1  0.50000000  0.80000000  0.75000000  1.0
  Ti4+  Ti31  1  0.50000000  0.40000000  0.75000000  1.0
  Ti4+  Ti32  1  0.50134940  0.19792696  0.74526060  1.0
  Ti4+  Ti33  1  0.50000000  0.00000000  0.25000000  1.0
  Ti4+  Ti34  1  0.50000000  0.80000000  0.25000000  1.0
  Ti4+  Ti35  1  0.50000000  0.60000000  0.25000000  1.0
  Ti4+  Ti36  1  0.50000000  0.40000000  0.25000000  1.0
  Ti4+  Ti37  1  0.50000000  0.20000000  0.25000000  1.0
  Al3+  Al38  1  0.00000000  0.80000000  0.25000000  1.0
  Al3+  Al39  1  0.50000000  0.60000000  0.75000000  1.0
  O2-  O40  1  0.00000000  0.90000000  0.75000000  1.0
  O2-  O41  1  0.00000000  0.70000000  0.75000000  1.0
  O2-  O42  1  0.00301740  0.50427959  0.75096325  1.0
  O2-  O43  1  0.99718389  0.29890996  0.74387690  1.0
  O2-  O44  1  0.00000000  0.10000000  0.75000000  1.0
  O2-  O45  1  0.00000000  0.90000000  0.25000000  1.0
  O2-  O46  1  0.00000000  0.70000000  0.25000000  1.0
  O2-  O47  1  0.00000000  0.50000000  0.25000000  1.0
  O2-  O48  1  0.00000000  0.30000000  0.25000000  1.0
  O2-  O49  1  0.99957502  0.09938653  0.24847369  1.0
  O2-  O50  1  0.50000000  0.90000000  0.75000000  1.0
  O2-  O51  1  0.50000000  0.70000000  0.75000000  1.0
  O2-  O52  1  0.50000000  0.50000000  0.75000000  1.0
  O2-  O53  1  0.50000000  0.30000000  0.75000000  1.0
  O2-  O54  1  0.49942390  0.09918396  0.75136909  1.0
  O2-  O55  1  0.50000000  0.90000000  0.25000000  1.0
  O2-  O56  1  0.50000000  0.70000000  0.25000000  1.0
  O2-  O57  1  0.50000000  0.50000000  0.25000000  1.0
  O2-  O58  1  0.50000000  0.30000000  0.25000000  1.0
  O2-  O59  1  0.49604734  0.10178150  0.24859548  1.0
  O2-  O60  1  0.00000000  0.00000000  0.50000000  1.0
  O2-  O61  1  0.00000000  0.80000000  0.50000000  1.0
  O2-  O62  1  0.00000000  0.60000000  0.50000000  1.0
  O2-  O63  1  0.00271326  0.39379890  0.49850501  1.0
  O2-  O64  1  0.99940513  0.20552871  0.50098162  1.0
  O2-  O65  1  0.00000000  0.00000000  0.00000000  1.0
  O2-  O66  1  0.00000000  0.80000000  0.00000000  1.0
  O2-  O67  1  0.00000000  0.60000000  0.00000000  1.0
  O2-  O68  1  0.00000000  0.40000000  0.00000000  1.0
  O2-  O69  1  0.00000000  0.20000000  0.00000000  1.0
  O2-  O70  1  0.50000000  0.00000000  0.50000000  1.0
  O2-  O71  1  0.50000000  0.80000000  0.50000000  1.0
  O2-  O72  1  0.50000000  0.60000000  0.50000000  1.0
  O2-  O73  1  0.50000000  0.40000000  0.50000000  1.0
  O2-  O74  1  0.49632135  0.20395251  0.49672060  1.0
  O2-  O75  1  0.50000000  0.00000000  0.00000000  1.0
  O2-  O76  1  0.50233084  0.79996675  0.00316522  1.0
  O2-  O77  1  0.50000000  0.60000000  0.00000000  1.0
  O2-  O78  1  0.50000000  0.40000000  0.00000000  1.0
  O2-  O79  1  0.50000000  0.20000000  0.00000000  1.0
  O2-  O80  1  0.25000000  0.00000000  0.75000000  1.0
  O2-  O81  1  0.25000000  0.80000000  0.75000000  1.0
  O2-  O82  1  0.25000000  0.60000000  0.75000000  1.0
  O2-  O83  1  0.25260455  0.40121573  0.74931064  1.0
  O2-  O84  1  0.25000000  0.20000000  0.75000000  1.0
  O2-  O85  1  0.24647203  0.00293463  0.24839803  1.0
  O2-  O86  1  0.25181476  0.80119288  0.25021623  1.0
  O2-  O87  1  0.24591716  0.59907636  0.24862316  1.0
  O2-  O88  1  0.24834251  0.40055034  0.24642063  1.0
  O2-  O89  1  0.25000000  0.20000000  0.25000000  1.0
  O2-  O90  1  0.75174919  0.00631316  0.75311139  1.0
  O2-  O91  1  0.75000000  0.80000000  0.75000000  1.0
  O2-  O92  1  0.75000000  0.60000000  0.75000000  1.0
  O2-  O93  1  0.75000000  0.40000000  0.75000000  1.0
  O2-  O94  1  0.75095573  0.20130633  0.75082129  1.0
  O2-  O95  1  0.75000000  0.00000000  0.25000000  1.0
  O2-  O96  1  0.75110082  0.80025938  0.25082057  1.0
  O2-  O97  1  0.75000000  0.60000000  0.25000000  1.0
  O2-  O98  1  0.75000000  0.40000000  0.25000000  1.0
  O2-  O99  1  0.75000000  0.20000000  0.25000000  1.0
