# generated using pymatgen
data_Li60B9P10H36S49
_symmetry_space_group_name_H-M   'P 1'
_cell_length_a   7.07813888
_cell_length_b   35.39069440
_cell_length_c   14.15627776
_cell_angle_alpha   60.00000000
_cell_angle_beta   120.00000000
_cell_angle_gamma   120.00000000
_symmetry_Int_Tables_number   1
_chemical_formula_structural   Li60B9P10H36S49
_chemical_formula_sum   'Li60 B9 P10 H36 S49'
_cell_volume   2507.50750284
_cell_formula_units_Z   1
loop_
 _symmetry_equiv_pos_site_id
 _symmetry_equiv_pos_as_xyz
  1  'x, y, z'
loop_
 _atom_type_symbol
 _atom_type_oxidation_number
  Li+  1.0
  B3+  3.0
  P5+  5.0
  H+  1.0
  S2-  -2.0
loop_
 _atom_site_type_symbol
 _atom_site_label
 _atom_site_symmetry_multiplicity
 _atom_site_fract_x
 _atom_site_fract_y
 _atom_site_fract_z
 _atom_site_occupancy
  Li+  Li0  1  0.51000000  0.69800000  0.25500000  1.0
  Li+  Li1  1  0.51000000  0.49800000  0.75500000  1.0
  Li+  Li2  1  0.99000000  0.29800000  0.49500000  1.0
  Li+  Li3  1  0.99000000  0.49800000  0.99500000  1.0
  Li+  Li4  1  0.98897556  0.09646292  0.99374963  1.0
  Li+  Li5  1  0.99000000  0.80200000  0.99500000  1.0
  Li+  Li6  1  0.99000000  0.89800000  0.75500000  1.0
  Li+  Li7  1  0.69412025  0.59889317  0.58355899  1.0
  Li+  Li8  1  0.69515263  0.20523648  0.58120687  1.0
  Li+  Li9  1  0.69360000  0.80300000  0.08180000  1.0
  Li+  Li10  1  0.69360000  0.60300000  0.08180000  1.0
  Li+  Li11  1  0.69360000  0.00300000  0.08180000  1.0
  Li+  Li12  1  0.69375279  0.60017602  0.25564926  1.0
  Li+  Li13  1  0.69360000  0.00300000  0.25750000  1.0
  Li+  Li14  1  0.69360000  0.80300000  0.75750000  1.0
  Li+  Li15  1  0.69360000  0.40300000  0.75750000  1.0
  Li+  Li16  1  0.69360000  0.00300000  0.75750000  1.0
  Li+  Li17  1  0.69539480  0.93091415  0.25941095  1.0
  Li+  Li18  1  0.69258884  0.73319265  0.25833743  1.0
  Li+  Li19  1  0.69509381  0.93473180  0.75349024  1.0
  Li+  Li20  1  0.69360000  0.73272000  0.75750000  1.0
  Li+  Li21  1  0.69578716  0.53144860  0.75696475  1.0
  Li+  Li22  1  0.69360000  0.33272000  0.75750000  1.0
  Li+  Li23  1  0.69360000  0.13272000  0.75750000  1.0
  Li+  Li24  1  0.33640000  0.40300000  0.40320000  1.0
  Li+  Li25  1  0.33909389  0.00495418  0.40244196  1.0
  Li+  Li26  1  0.34073632  0.80644352  0.90624724  1.0
  Li+  Li27  1  0.33640000  0.40300000  0.90320000  1.0
  Li+  Li28  1  0.33640000  0.20300000  0.90320000  1.0
  Li+  Li29  1  0.98500000  0.13272000  0.40320000  1.0
  Li+  Li30  1  0.98500000  0.93272000  0.90320000  1.0
  Li+  Li31  1  0.98500000  0.33272000  0.90320000  1.0
  Li+  Li32  1  0.98500000  0.20300000  0.40320000  1.0
  Li+  Li33  1  0.98500000  0.00300000  0.40320000  1.0
  Li+  Li34  1  0.98500000  0.60300000  0.90320000  1.0
  Li+  Li35  1  0.98500000  0.40300000  0.90320000  1.0
  Li+  Li36  1  0.98372097  0.20202291  0.90110711  1.0
  Li+  Li37  1  0.98500000  0.86128000  0.25750000  1.0
  Li+  Li38  1  0.98500000  0.26128000  0.75750000  1.0
  Li+  Li39  1  0.98500000  0.26128000  0.58180000  1.0
  Li+  Li40  1  0.98500000  0.06128000  0.58180000  1.0
  Li+  Li41  1  0.98500000  0.46128000  0.08180000  1.0
  Li+  Li42  1  0.98500000  0.26128000  0.08180000  1.0
  Li+  Li43  1  0.98500000  0.06128000  0.08180000  1.0
  Li+  Li44  1  0.33640000  0.66128000  0.25750000  1.0
  Li+  Li45  1  0.33640000  0.26128000  0.25750000  1.0
  Li+  Li46  1  0.33506137  0.86545695  0.75958061  1.0
  Li+  Li47  1  0.33640000  0.66128000  0.75750000  1.0
  Li+  Li48  1  0.33640000  0.06128000  0.75750000  1.0
  Li+  Li49  1  0.98500000  0.93272000  0.25750000  1.0
  Li+  Li50  1  0.98500000  0.33272000  0.25750000  1.0
  Li+  Li51  1  0.98500000  0.13272000  0.25750000  1.0
  Li+  Li52  1  0.98500000  0.93272000  0.75750000  1.0
  Li+  Li53  1  0.33640000  0.80300000  0.25750000  1.0
  Li+  Li54  1  0.33640000  0.20300000  0.25750000  1.0
  Li+  Li55  1  0.33640000  0.00300000  0.25750000  1.0
  Li+  Li56  1  0.33640000  0.60300000  0.75750000  1.0
  Li+  Li57  1  0.98791291  0.40199953  0.57957754  1.0
  Li+  Li58  1  0.99128524  0.00402714  0.58338495  1.0
  Li+  Li59  1  0.98467804  0.40066281  0.08286018  1.0
  B3+  B60  1  0.25000000  0.55000000  0.12500000  1.0
  B3+  B61  1  0.25000000  0.35000000  0.12500000  1.0
  B3+  B62  1  0.00000000  0.00000000  0.75000000  1.0
  B3+  B63  1  0.00116120  0.79958800  0.75213990  1.0
  B3+  B64  1  0.00000000  0.40000000  0.75000000  1.0
  B3+  B65  1  0.99867328  0.20032667  0.75361623  1.0
  B3+  B66  1  0.00000000  0.80000000  0.25000000  1.0
  B3+  B67  1  0.00000000  0.60000000  0.25000000  1.0
  B3+  B68  1  0.00348969  0.20350190  0.24993523  1.0
  P5+  P69  1  0.50000000  0.90000000  0.50000000  1.0
  P5+  P70  1  0.50000000  0.70000000  0.50000000  1.0
  P5+  P71  1  0.50000000  0.50000000  0.50000000  1.0
  P5+  P72  1  0.49719357  0.29762663  0.49793073  1.0
  P5+  P73  1  0.50000000  0.10000000  0.50000000  1.0
  P5+  P74  1  0.50000000  0.90000000  0.00000000  1.0
  P5+  P75  1  0.50000000  0.70000000  0.00000000  1.0
  P5+  P76  1  0.50091888  0.50506404  0.00059096  1.0
  P5+  P77  1  0.50000000  0.30000000  0.00000000  1.0
  P5+  P78  1  0.50000000  0.10000000  0.00000000  1.0
  H+  H79  1  0.03817902  0.73427050  0.58988491  1.0
  H+  H80  1  0.04000000  0.73600000  0.09000000  1.0
  H+  H81  1  0.04011806  0.53472515  0.08903406  1.0
  H+  H82  1  0.32000000  0.93600000  0.73000000  1.0
  H+  H83  1  0.31957252  0.33896740  0.73349115  1.0
  H+  H84  1  0.32291333  0.13418921  0.72961860  1.0
  H+  H85  1  0.32000000  0.59200000  0.59000000  1.0
  H+  H86  1  0.31868603  0.53598751  0.58974448  1.0
  H+  H87  1  0.32000000  0.13600000  0.09000000  1.0
  H+  H88  1  0.07000000  0.78600000  0.35500000  1.0
  H+  H89  1  0.07000000  0.38600000  0.35500000  1.0
  H+  H90  1  0.07000000  0.18600000  0.35500000  1.0
  H+  H91  1  0.07000000  0.78600000  0.85500000  1.0
  H+  H92  1  0.07000000  0.58600000  0.85500000  1.0
  H+  H93  1  0.07000949  0.18135435  0.85986836  1.0
  H+  H94  1  0.07000000  0.78600000  0.71500000  1.0
  H+  H95  1  0.07000000  0.58600000  0.71500000  1.0
  H+  H96  1  0.06863917  0.18285987  0.71215487  1.0
  H+  H97  1  0.07000000  0.98600000  0.21500000  1.0
  H+  H98  1  0.07000000  0.78600000  0.21500000  1.0
  H+  H99  1  0.06726159  0.18532873  0.21396142  1.0
  H+  H100  1  0.06843745  0.84286438  0.71164533  1.0
  H+  H101  1  0.07000000  0.64200000  0.71500000  1.0
  H+  H102  1  0.07000000  0.24200000  0.71500000  1.0
  H+  H103  1  0.07000000  0.84200000  0.21500000  1.0
  H+  H104  1  0.07000000  0.44200000  0.21500000  1.0
  H+  H105  1  0.07000000  0.24200000  0.21500000  1.0
  H+  H106  1  0.79000000  0.98600000  0.71500000  1.0
  H+  H107  1  0.79000000  0.78600000  0.71500000  1.0
  H+  H108  1  0.79000000  0.58600000  0.71500000  1.0
  H+  H109  1  0.79000000  0.38600000  0.71500000  1.0
  H+  H110  1  0.79000000  0.18600000  0.71500000  1.0
  H+  H111  1  0.78762940  0.98246516  0.21400230  1.0
  H+  H112  1  0.79000000  0.78600000  0.21500000  1.0
  H+  H113  1  0.79000000  0.58600000  0.21500000  1.0
  H+  H114  1  0.79000000  0.38600000  0.21500000  1.0
  S2-  S115  1  0.25000000  0.95000000  0.62500000  1.0
  S2-  S116  1  0.25000000  0.75000000  0.62500000  1.0
  S2-  S117  1  0.25000000  0.55000000  0.62500000  1.0
  S2-  S118  1  0.25000000  0.35000000  0.62500000  1.0
  S2-  S119  1  0.25000000  0.15000000  0.62500000  1.0
  S2-  S120  1  0.25000000  0.75000000  0.12500000  1.0
  S2-  S121  1  0.25000000  0.15000000  0.12500000  1.0
  S2-  S122  1  0.00000000  0.00000000  0.25000000  1.0
  S2-  S123  1  0.00000000  0.40000000  0.25000000  1.0
  S2-  S124  1  0.14318229  0.87880026  0.43677302  1.0
  S2-  S125  1  0.14534677  0.67539438  0.43984905  1.0
  S2-  S126  1  0.14390000  0.47626000  0.44065000  1.0
  S2-  S127  1  0.14469474  0.27559830  0.43962357  1.0
  S2-  S128  1  0.14390000  0.07626000  0.44065000  1.0
  S2-  S129  1  0.14390000  0.87626000  0.94065000  1.0
  S2-  S130  1  0.14390000  0.67626000  0.94065000  1.0
  S2-  S131  1  0.14019455  0.47681162  0.94196683  1.0
  S2-  S132  1  0.14390000  0.27626000  0.94065000  1.0
  S2-  S133  1  0.14351674  0.07461086  0.94390583  1.0
  S2-  S134  1  0.61870000  0.87626000  0.67805000  1.0
  S2-  S135  1  0.61870000  0.67626000  0.67805000  1.0
  S2-  S136  1  0.61870000  0.47626000  0.67805000  1.0
  S2-  S137  1  0.61870000  0.27626000  0.67805000  1.0
  S2-  S138  1  0.61870000  0.07626000  0.67805000  1.0
  S2-  S139  1  0.62109285  0.88167245  0.17634629  1.0
  S2-  S140  1  0.61870000  0.67626000  0.17805000  1.0
  S2-  S141  1  0.62221923  0.47858464  0.18392028  1.0
  S2-  S142  1  0.61870000  0.27626000  0.17805000  1.0
  S2-  S143  1  0.61870000  0.07626000  0.17805000  1.0
  S2-  S144  1  0.62311631  0.97025619  0.43971125  1.0
  S2-  S145  1  0.61498211  0.77360947  0.43988922  1.0
  S2-  S146  1  0.61870000  0.57122000  0.44065000  1.0
  S2-  S147  1  0.61870000  0.37122000  0.44065000  1.0
  S2-  S148  1  0.61870000  0.17122000  0.44065000  1.0
  S2-  S149  1  0.61870000  0.97122000  0.94065000  1.0
  S2-  S150  1  0.61870000  0.77122000  0.94065000  1.0
  S2-  S151  1  0.61870000  0.57122000  0.94065000  1.0
  S2-  S152  1  0.61870000  0.37122000  0.94065000  1.0
  S2-  S153  1  0.61870000  0.17122000  0.94065000  1.0
  S2-  S154  1  0.61870000  0.87626000  0.44065000  1.0
  S2-  S155  1  0.61870000  0.67626000  0.44065000  1.0
  S2-  S156  1  0.61870000  0.47626000  0.44065000  1.0
  S2-  S157  1  0.61870000  0.27626000  0.44065000  1.0
  S2-  S158  1  0.61880858  0.07619080  0.43932106  1.0
  S2-  S159  1  0.61870000  0.87626000  0.94065000  1.0
  S2-  S160  1  0.61870000  0.67626000  0.94065000  1.0
  S2-  S161  1  0.61870000  0.47626000  0.94065000  1.0
  S2-  S162  1  0.61870000  0.27626000  0.94065000  1.0
  S2-  S163  1  0.61750952  0.07431231  0.94210891  1.0
