# generated using pymatgen
data_Li60B9P10H36S49
_symmetry_space_group_name_H-M   'P 1'
_cell_length_a   14.29260088
_cell_length_b   7.14630044
_cell_length_c   35.73150220
_cell_angle_alpha   120.00000000
_cell_angle_beta   120.00000000
_cell_angle_gamma   60.00000000
_symmetry_Int_Tables_number   1
_chemical_formula_structural   Li60B9P10H36S49
_chemical_formula_sum   'Li60 B9 P10 H36 S49'
_cell_volume   2580.64825548
_cell_formula_units_Z   1
loop_
 _symmetry_equiv_pos_site_id
 _symmetry_equiv_pos_as_xyz
  1  'x, y, z'
loop_
 _atom_type_symbol
 _atom_type_oxidation_number
  Li+  1.0
  B3+  3.0
  P5+  5.0
  H+  1.0
  S2-  -2.0
loop_
 _atom_site_type_symbol
 _atom_site_label
 _atom_site_symmetry_multiplicity
 _atom_site_fract_x
 _atom_site_fract_y
 _atom_site_fract_z
 _atom_site_occupancy
  Li+  Li0  1  0.50500000  0.15666667  0.30200000  1.0
  Li+  Li1  1  0.00500000  0.15666667  0.50200000  1.0
  Li+  Li2  1  0.74500000  0.67666667  0.70200000  1.0
  Li+  Li3  1  0.24500000  0.67666667  0.50200000  1.0
  Li+  Li4  1  0.24500000  0.67666667  0.90200000  1.0
  Li+  Li5  1  0.24500000  0.67666667  0.19800000  1.0
  Li+  Li6  1  0.00500000  0.67666667  0.10200000  1.0
  Li+  Li7  1  0.83180000  0.97306667  0.39700000  1.0
  Li+  Li8  1  0.83180000  0.97306667  0.79700000  1.0
  Li+  Li9  1  0.33180000  0.97306667  0.19700000  1.0
  Li+  Li10  1  0.33180000  0.97306667  0.39700000  1.0
  Li+  Li11  1  0.33180000  0.97306667  0.99700000  1.0
  Li+  Li12  1  0.50750000  0.97306667  0.39700000  1.0
  Li+  Li13  1  0.50750000  0.97306667  0.99700000  1.0
  Li+  Li14  1  0.00750000  0.97306667  0.19700000  1.0
  Li+  Li15  1  0.00750000  0.97306667  0.59700000  1.0
  Li+  Li16  1  0.00750000  0.97306667  0.99700000  1.0
  Li+  Li17  1  0.50750000  0.97306667  0.06728000  1.0
  Li+  Li18  1  0.50750000  0.97306667  0.26728000  1.0
  Li+  Li19  1  0.00750000  0.97306667  0.06728000  1.0
  Li+  Li20  1  0.00750000  0.97306667  0.26728000  1.0
  Li+  Li21  1  0.00750000  0.97306667  0.46728000  1.0
  Li+  Li22  1  0.00750000  0.97306667  0.66728000  1.0
  Li+  Li23  1  0.00750000  0.97306667  0.86728000  1.0
  Li+  Li24  1  0.65320000  0.33026667  0.59700000  1.0
  Li+  Li25  1  0.65320000  0.33026667  0.99700000  1.0
  Li+  Li26  1  0.15320000  0.33026667  0.19700000  1.0
  Li+  Li27  1  0.15320000  0.33026667  0.59700000  1.0
  Li+  Li28  1  0.15320000  0.33026667  0.79700000  1.0
  Li+  Li29  1  0.65320000  0.68166667  0.86728000  1.0
  Li+  Li30  1  0.15320000  0.68166667  0.06728000  1.0
  Li+  Li31  1  0.15320000  0.68166667  0.66728000  1.0
  Li+  Li32  1  0.65320000  0.68166667  0.79700000  1.0
  Li+  Li33  1  0.65320000  0.68166667  0.99700000  1.0
  Li+  Li34  1  0.15320000  0.68166667  0.39700000  1.0
  Li+  Li35  1  0.15320000  0.68166667  0.59700000  1.0
  Li+  Li36  1  0.15320000  0.68166667  0.79700000  1.0
  Li+  Li37  1  0.50750000  0.68166667  0.13872000  1.0
  Li+  Li38  1  0.00750000  0.68166667  0.73872000  1.0
  Li+  Li39  1  0.83180000  0.68166667  0.73872000  1.0
  Li+  Li40  1  0.83180000  0.68166667  0.93872000  1.0
  Li+  Li41  1  0.33180000  0.68166667  0.53872000  1.0
  Li+  Li42  1  0.33180000  0.68166667  0.73872000  1.0
  Li+  Li43  1  0.33180000  0.68166667  0.93872000  1.0
  Li+  Li44  1  0.50750000  0.33026667  0.33872000  1.0
  Li+  Li45  1  0.50750000  0.33026667  0.73872000  1.0
  Li+  Li46  1  0.00750000  0.33026667  0.13872000  1.0
  Li+  Li47  1  0.00750000  0.33026667  0.33872000  1.0
  Li+  Li48  1  0.00750000  0.33026667  0.93872000  1.0
  Li+  Li49  1  0.50750000  0.68166667  0.06728000  1.0
  Li+  Li50  1  0.50750000  0.68166667  0.66728000  1.0
  Li+  Li51  1  0.50750000  0.68166667  0.86728000  1.0
  Li+  Li52  1  0.00750000  0.68166667  0.06728000  1.0
  Li+  Li53  1  0.50750000  0.33026667  0.19700000  1.0
  Li+  Li54  1  0.50750000  0.33026667  0.79700000  1.0
  Li+  Li55  1  0.50750000  0.33026667  0.99700000  1.0
  Li+  Li56  1  0.00750000  0.33026667  0.39700000  1.0
  Li+  Li57  1  0.83180000  0.68166667  0.59700000  1.0
  Li+  Li58  1  0.83180000  0.68166667  0.99700000  1.0
  Li+  Li59  1  0.33180000  0.68166667  0.59700000  1.0
  B3+  B60  1  0.37500000  0.41666667  0.45000000  1.0
  B3+  B61  1  0.37500000  0.41666667  0.65000000  1.0
  B3+  B62  1  0.00000000  0.66666667  0.00000000  1.0
  B3+  B63  1  0.00000000  0.66666667  0.20000000  1.0
  B3+  B64  1  0.00000000  0.66666667  0.60000000  1.0
  B3+  B65  1  0.00000000  0.66666667  0.80000000  1.0
  B3+  B66  1  0.50000000  0.66666667  0.20000000  1.0
  B3+  B67  1  0.50000000  0.66666667  0.40000000  1.0
  B3+  B68  1  0.50000000  0.66666667  0.80000000  1.0
  P5+  P69  1  0.75000000  0.16666667  0.10000000  1.0
  P5+  P70  1  0.75000000  0.16666667  0.30000000  1.0
  P5+  P71  1  0.75000000  0.16666667  0.50000000  1.0
  P5+  P72  1  0.75000000  0.16666667  0.70000000  1.0
  P5+  P73  1  0.75000000  0.16666667  0.90000000  1.0
  P5+  P74  1  0.25000000  0.16666667  0.10000000  1.0
  P5+  P75  1  0.25000000  0.16666667  0.30000000  1.0
  P5+  P76  1  0.25000000  0.16666667  0.50000000  1.0
  P5+  P77  1  0.25000000  0.16666667  0.70000000  1.0
  P5+  P78  1  0.25000000  0.16666667  0.90000000  1.0
  H+  H79  1  0.84000000  0.62666667  0.26400000  1.0
  H+  H80  1  0.34000000  0.62666667  0.26400000  1.0
  H+  H81  1  0.34000000  0.62666667  0.46400000  1.0
  H+  H82  1  0.98000000  0.34666667  0.06400000  1.0
  H+  H83  1  0.98000000  0.34666667  0.66400000  1.0
  H+  H84  1  0.98000000  0.34666667  0.86400000  1.0
  H+  H85  1  0.84000000  0.34666667  0.40800000  1.0
  H+  H86  1  0.84000000  0.34666667  0.46400000  1.0
  H+  H87  1  0.34000000  0.34666667  0.86400000  1.0
  H+  H88  1  0.60500000  0.59666667  0.21400000  1.0
  H+  H89  1  0.60500000  0.59666667  0.61400000  1.0
  H+  H90  1  0.60500000  0.59666667  0.81400000  1.0
  H+  H91  1  0.10500000  0.59666667  0.21400000  1.0
  H+  H92  1  0.10500000  0.59666667  0.41400000  1.0
  H+  H93  1  0.10500000  0.59666667  0.81400000  1.0
  H+  H94  1  0.96500000  0.59666667  0.21400000  1.0
  H+  H95  1  0.96500000  0.59666667  0.41400000  1.0
  H+  H96  1  0.96500000  0.59666667  0.81400000  1.0
  H+  H97  1  0.46500000  0.59666667  0.01400000  1.0
  H+  H98  1  0.46500000  0.59666667  0.21400000  1.0
  H+  H99  1  0.46500000  0.59666667  0.81400000  1.0
  H+  H100  1  0.96500000  0.59666667  0.15800000  1.0
  H+  H101  1  0.96500000  0.59666667  0.35800000  1.0
  H+  H102  1  0.96500000  0.59666667  0.75800000  1.0
  H+  H103  1  0.46500000  0.59666667  0.15800000  1.0
  H+  H104  1  0.46500000  0.59666667  0.55800000  1.0
  H+  H105  1  0.46500000  0.59666667  0.75800000  1.0
  H+  H106  1  0.96500000  0.87666667  0.01400000  1.0
  H+  H107  1  0.96500000  0.87666667  0.21400000  1.0
  H+  H108  1  0.96500000  0.87666667  0.41400000  1.0
  H+  H109  1  0.96500000  0.87666667  0.61400000  1.0
  H+  H110  1  0.96500000  0.87666667  0.81400000  1.0
  H+  H111  1  0.46500000  0.87666667  0.01400000  1.0
  H+  H112  1  0.46500000  0.87666667  0.21400000  1.0
  H+  H113  1  0.46500000  0.87666667  0.41400000  1.0
  H+  H114  1  0.46500000  0.87666667  0.61400000  1.0
  S2-  S115  1  0.87500000  0.41666667  0.05000000  1.0
  S2-  S116  1  0.87500000  0.41666667  0.25000000  1.0
  S2-  S117  1  0.87500000  0.41666667  0.45000000  1.0
  S2-  S118  1  0.87500000  0.41666667  0.65000000  1.0
  S2-  S119  1  0.87500000  0.41666667  0.85000000  1.0
  S2-  S120  1  0.37500000  0.41666667  0.25000000  1.0
  S2-  S121  1  0.37500000  0.41666667  0.85000000  1.0
  S2-  S122  1  0.50000000  0.66666667  0.00000000  1.0
  S2-  S123  1  0.50000000  0.66666667  0.60000000  1.0
  S2-  S124  1  0.69065000  0.52276667  0.12374000  1.0
  S2-  S125  1  0.69065000  0.52276667  0.32374000  1.0
  S2-  S126  1  0.69065000  0.52276667  0.52374000  1.0
  S2-  S127  1  0.69065000  0.52276667  0.72374000  1.0
  S2-  S128  1  0.69065000  0.52276667  0.92374000  1.0
  S2-  S129  1  0.19065000  0.52276667  0.12374000  1.0
  S2-  S130  1  0.19065000  0.52276667  0.32374000  1.0
  S2-  S131  1  0.19065000  0.52276667  0.52374000  1.0
  S2-  S132  1  0.19065000  0.52276667  0.72374000  1.0
  S2-  S133  1  0.19065000  0.52276667  0.92374000  1.0
  S2-  S134  1  0.92805000  0.04796667  0.12374000  1.0
  S2-  S135  1  0.92805000  0.04796667  0.32374000  1.0
  S2-  S136  1  0.92805000  0.04796667  0.52374000  1.0
  S2-  S137  1  0.92805000  0.04796667  0.72374000  1.0
  S2-  S138  1  0.92805000  0.04796667  0.92374000  1.0
  S2-  S139  1  0.42805000  0.04796667  0.12374000  1.0
  S2-  S140  1  0.42805000  0.04796667  0.32374000  1.0
  S2-  S141  1  0.42805000  0.04796667  0.52374000  1.0
  S2-  S142  1  0.42805000  0.04796667  0.72374000  1.0
  S2-  S143  1  0.42805000  0.04796667  0.92374000  1.0
  S2-  S144  1  0.69065000  0.04796667  0.02878000  1.0
  S2-  S145  1  0.69065000  0.04796667  0.22878000  1.0
  S2-  S146  1  0.69065000  0.04796667  0.42878000  1.0
  S2-  S147  1  0.69065000  0.04796667  0.62878000  1.0
  S2-  S148  1  0.69065000  0.04796667  0.82878000  1.0
  S2-  S149  1  0.19065000  0.04796667  0.02878000  1.0
  S2-  S150  1  0.19065000  0.04796667  0.22878000  1.0
  S2-  S151  1  0.19065000  0.04796667  0.42878000  1.0
  S2-  S152  1  0.19065000  0.04796667  0.62878000  1.0
  S2-  S153  1  0.19065000  0.04796667  0.82878000  1.0
  S2-  S154  1  0.69065000  0.04796667  0.12374000  1.0
  S2-  S155  1  0.69065000  0.04796667  0.32374000  1.0
  S2-  S156  1  0.69065000  0.04796667  0.52374000  1.0
  S2-  S157  1  0.69065000  0.04796667  0.72374000  1.0
  S2-  S158  1  0.69065000  0.04796667  0.92374000  1.0
  S2-  S159  1  0.19065000  0.04796667  0.12374000  1.0
  S2-  S160  1  0.19065000  0.04796667  0.32374000  1.0
  S2-  S161  1  0.19065000  0.04796667  0.52374000  1.0
  S2-  S162  1  0.19065000  0.04796667  0.72374000  1.0
  S2-  S163  1  0.19065000  0.04796667  0.92374000  1.0
