# generated using pymatgen
data_Li60B9P10H36S49
_symmetry_space_group_name_H-M   'P 1'
_cell_length_a   7.07813888
_cell_length_b   14.15627776
_cell_length_c   35.39069440
_cell_angle_alpha   60.00000000
_cell_angle_beta   60.00000000
_cell_angle_gamma   60.00000000
_symmetry_Int_Tables_number   1
_chemical_formula_structural   Li60B9P10H36S49
_chemical_formula_sum   'Li60 B9 P10 H36 S49'
_cell_volume   2507.50750284
_cell_formula_units_Z   1
loop_
 _symmetry_equiv_pos_site_id
 _symmetry_equiv_pos_as_xyz
  1  'x, y, z'
loop_
 _atom_type_symbol
 _atom_type_oxidation_number
  Li+  1.0
  B3+  3.0
  P5+  5.0
  H+  1.0
  S2-  -2.0
loop_
 _atom_site_type_symbol
 _atom_site_label
 _atom_site_symmetry_multiplicity
 _atom_site_fract_x
 _atom_site_fract_y
 _atom_site_fract_z
 _atom_site_occupancy
  Li+  Li0  1  0.51000000  0.49500000  0.30200000  1.0
  Li+  Li1  1  0.51000000  0.99500000  0.50200000  1.0
  Li+  Li2  1  0.99000000  0.25500000  0.70200000  1.0
  Li+  Li3  1  0.99000000  0.75500000  0.50200000  1.0
  Li+  Li4  1  0.99000000  0.75500000  0.90200000  1.0
  Li+  Li5  1  0.99000000  0.75500000  0.19800000  1.0
  Li+  Li6  1  0.99000000  0.99500000  0.10200000  1.0
  Li+  Li7  1  0.69360000  0.16820000  0.39700000  1.0
  Li+  Li8  1  0.69360000  0.16820000  0.79700000  1.0
  Li+  Li9  1  0.69360000  0.66820000  0.19700000  1.0
  Li+  Li10  1  0.69360000  0.66820000  0.39700000  1.0
  Li+  Li11  1  0.69360000  0.66820000  0.99700000  1.0
  Li+  Li12  1  0.69360000  0.49250000  0.39700000  1.0
  Li+  Li13  1  0.69360000  0.49250000  0.99700000  1.0
  Li+  Li14  1  0.69360000  0.99250000  0.19700000  1.0
  Li+  Li15  1  0.69360000  0.99250000  0.59700000  1.0
  Li+  Li16  1  0.69360000  0.99250000  0.99700000  1.0
  Li+  Li17  1  0.69360000  0.49250000  0.06728000  1.0
  Li+  Li18  1  0.69360000  0.49250000  0.26728000  1.0
  Li+  Li19  1  0.69360000  0.99250000  0.06728000  1.0
  Li+  Li20  1  0.69360000  0.99250000  0.26728000  1.0
  Li+  Li21  1  0.69360000  0.99250000  0.46728000  1.0
  Li+  Li22  1  0.69360000  0.99250000  0.66728000  1.0
  Li+  Li23  1  0.69360000  0.99250000  0.86728000  1.0
  Li+  Li24  1  0.33640000  0.34680000  0.59700000  1.0
  Li+  Li25  1  0.33640000  0.34680000  0.99700000  1.0
  Li+  Li26  1  0.33640000  0.84680000  0.19700000  1.0
  Li+  Li27  1  0.33640000  0.84680000  0.59700000  1.0
  Li+  Li28  1  0.33640000  0.84680000  0.79700000  1.0
  Li+  Li29  1  0.98500000  0.34680000  0.86728000  1.0
  Li+  Li30  1  0.98500000  0.84680000  0.06728000  1.0
  Li+  Li31  1  0.98500000  0.84680000  0.66728000  1.0
  Li+  Li32  1  0.98500000  0.34680000  0.79700000  1.0
  Li+  Li33  1  0.98500000  0.34680000  0.99700000  1.0
  Li+  Li34  1  0.98500000  0.84680000  0.39700000  1.0
  Li+  Li35  1  0.98500000  0.84680000  0.59700000  1.0
  Li+  Li36  1  0.98500000  0.84680000  0.79700000  1.0
  Li+  Li37  1  0.98500000  0.49250000  0.13872000  1.0
  Li+  Li38  1  0.98500000  0.99250000  0.73872000  1.0
  Li+  Li39  1  0.98500000  0.16820000  0.73872000  1.0
  Li+  Li40  1  0.98500000  0.16820000  0.93872000  1.0
  Li+  Li41  1  0.98500000  0.66820000  0.53872000  1.0
  Li+  Li42  1  0.98500000  0.66820000  0.73872000  1.0
  Li+  Li43  1  0.98500000  0.66820000  0.93872000  1.0
  Li+  Li44  1  0.33640000  0.49250000  0.33872000  1.0
  Li+  Li45  1  0.33640000  0.49250000  0.73872000  1.0
  Li+  Li46  1  0.33640000  0.99250000  0.13872000  1.0
  Li+  Li47  1  0.33640000  0.99250000  0.33872000  1.0
  Li+  Li48  1  0.33640000  0.99250000  0.93872000  1.0
  Li+  Li49  1  0.98500000  0.49250000  0.06728000  1.0
  Li+  Li50  1  0.98500000  0.49250000  0.66728000  1.0
  Li+  Li51  1  0.98500000  0.49250000  0.86728000  1.0
  Li+  Li52  1  0.98500000  0.99250000  0.06728000  1.0
  Li+  Li53  1  0.33640000  0.49250000  0.19700000  1.0
  Li+  Li54  1  0.33640000  0.49250000  0.79700000  1.0
  Li+  Li55  1  0.33640000  0.49250000  0.99700000  1.0
  Li+  Li56  1  0.33640000  0.99250000  0.39700000  1.0
  Li+  Li57  1  0.98500000  0.16820000  0.59700000  1.0
  Li+  Li58  1  0.98500000  0.16820000  0.99700000  1.0
  Li+  Li59  1  0.98500000  0.66820000  0.59700000  1.0
  B3+  B60  1  0.25000000  0.62500000  0.45000000  1.0
  B3+  B61  1  0.25000000  0.62500000  0.65000000  1.0
  B3+  B62  1  0.00000000  0.00000000  0.00000000  1.0
  B3+  B63  1  0.00000000  0.00000000  0.20000000  1.0
  B3+  B64  1  0.00000000  0.00000000  0.60000000  1.0
  B3+  B65  1  0.00000000  0.00000000  0.80000000  1.0
  B3+  B66  1  0.00000000  0.50000000  0.20000000  1.0
  B3+  B67  1  0.00000000  0.50000000  0.40000000  1.0
  B3+  B68  1  0.00000000  0.50000000  0.80000000  1.0
  P5+  P1  1  0.50000000  0.25000000  0.10000000  1.0
  P5+  P1  1  0.50000000  0.25000000  0.30000000  1.0
  P5+  P1  1  0.50000000  0.25000000  0.50000000  1.0
  P5+  P1  1  0.50000000  0.25000000  0.70000000  1.0
  P5+  P1  1  0.50000000  0.25000000  0.90000000  1.0
  P5+  P1  1  0.50000000  0.75000000  0.10000000  1.0
  P5+  P1  1  0.50000000  0.75000000  0.30000000  1.0
  P5+  P1  1  0.50000000  0.75000000  0.50000000  1.0
  P5+  P1  1  0.50000000  0.75000000  0.70000000  1.0
  P5+  P1  1  0.50000000  0.75000000  0.90000000  1.0
  H+  H79  1  0.04000000  0.16000000  0.26400000  1.0
  H+  H80  1  0.04000000  0.66000000  0.26400000  1.0
  H+  H81  1  0.04000000  0.66000000  0.46400000  1.0
  H+  H82  1  0.32000000  0.02000000  0.06400000  1.0
  H+  H83  1  0.32000000  0.02000000  0.66400000  1.0
  H+  H84  1  0.32000000  0.02000000  0.86400000  1.0
  H+  H85  1  0.32000000  0.16000000  0.40800000  1.0
  H+  H86  1  0.32000000  0.16000000  0.46400000  1.0
  H+  H87  1  0.32000000  0.66000000  0.86400000  1.0
  H+  H88  1  0.07000000  0.39500000  0.21400000  1.0
  H+  H89  1  0.07000000  0.39500000  0.61400000  1.0
  H+  H90  1  0.07000000  0.39500000  0.81400000  1.0
  H+  H91  1  0.07000000  0.89500000  0.21400000  1.0
  H+  H92  1  0.07000000  0.89500000  0.41400000  1.0
  H+  H93  1  0.07000000  0.89500000  0.81400000  1.0
  H+  H94  1  0.07000000  0.03500000  0.21400000  1.0
  H+  H95  1  0.07000000  0.03500000  0.41400000  1.0
  H+  H96  1  0.07000000  0.03500000  0.81400000  1.0
  H+  H97  1  0.07000000  0.53500000  0.01400000  1.0
  H+  H98  1  0.07000000  0.53500000  0.21400000  1.0
  H+  H99  1  0.07000000  0.53500000  0.81400000  1.0
  H+  H100  1  0.07000000  0.03500000  0.15800000  1.0
  H+  H101  1  0.07000000  0.03500000  0.35800000  1.0
  H+  H102  1  0.07000000  0.03500000  0.75800000  1.0
  H+  H103  1  0.07000000  0.53500000  0.15800000  1.0
  H+  H104  1  0.07000000  0.53500000  0.55800000  1.0
  H+  H105  1  0.07000000  0.53500000  0.75800000  1.0
  H+  H106  1  0.79000000  0.03500000  0.01400000  1.0
  H+  H107  1  0.79000000  0.03500000  0.21400000  1.0
  H+  H108  1  0.79000000  0.03500000  0.41400000  1.0
  H+  H109  1  0.79000000  0.03500000  0.61400000  1.0
  H+  H110  1  0.79000000  0.03500000  0.81400000  1.0
  H+  H111  1  0.79000000  0.53500000  0.01400000  1.0
  H+  H112  1  0.79000000  0.53500000  0.21400000  1.0
  H+  H113  1  0.79000000  0.53500000  0.41400000  1.0
  H+  H114  1  0.79000000  0.53500000  0.61400000  1.0
  S2-  S115  1  0.25000000  0.12500000  0.05000000  1.0
  S2-  S116  1  0.25000000  0.12500000  0.25000000  1.0
  S2-  S117  1  0.25000000  0.12500000  0.45000000  1.0
  S2-  S118  1  0.25000000  0.12500000  0.65000000  1.0
  S2-  S119  1  0.25000000  0.12500000  0.85000000  1.0
  S2-  S120  1  0.25000000  0.62500000  0.25000000  1.0
  S2-  S121  1  0.25000000  0.62500000  0.85000000  1.0
  S2-  S122  1  0.00000000  0.50000000  0.00000000  1.0
  S2-  S123  1  0.00000000  0.50000000  0.60000000  1.0
  S2-  S3  1  0.14390000  0.30935000  0.12374000  1.0
  S2-  S3  1  0.14390000  0.30935000  0.32374000  1.0
  S2-  S3  1  0.14390000  0.30935000  0.52374000  1.0
  S2-  S3  1  0.14390000  0.30935000  0.72374000  1.0
  S2-  S3  1  0.14390000  0.30935000  0.92374000  1.0
  S2-  S3  1  0.14390000  0.80935000  0.12374000  1.0
  S2-  S3  1  0.14390000  0.80935000  0.32374000  1.0
  S2-  S3  1  0.14390000  0.80935000  0.52374000  1.0
  S2-  S3  1  0.14390000  0.80935000  0.72374000  1.0
  S2-  S3  1  0.14390000  0.80935000  0.92374000  1.0
  S2-  S3  1  0.61870000  0.07195000  0.12374000  1.0
  S2-  S3  1  0.61870000  0.07195000  0.32374000  1.0
  S2-  S3  1  0.61870000  0.07195000  0.52374000  1.0
  S2-  S3  1  0.61870000  0.07195000  0.72374000  1.0
  S2-  S3  1  0.61870000  0.07195000  0.92374000  1.0
  S2-  S3  1  0.61870000  0.57195000  0.12374000  1.0
  S2-  S3  1  0.61870000  0.57195000  0.32374000  1.0
  S2-  S3  1  0.61870000  0.57195000  0.52374000  1.0
  S2-  S3  1  0.61870000  0.57195000  0.72374000  1.0
  S2-  S3  1  0.61870000  0.57195000  0.92374000  1.0
  S2-  S3  1  0.61870000  0.30935000  0.02878000  1.0
  S2-  S3  1  0.61870000  0.30935000  0.22878000  1.0
  S2-  S3  1  0.61870000  0.30935000  0.42878000  1.0
  S2-  S3  1  0.61870000  0.30935000  0.62878000  1.0
  S2-  S3  1  0.61870000  0.30935000  0.82878000  1.0
  S2-  S3  1  0.61870000  0.80935000  0.02878000  1.0
  S2-  S3  1  0.61870000  0.80935000  0.22878000  1.0
  S2-  S3  1  0.61870000  0.80935000  0.42878000  1.0
  S2-  S3  1  0.61870000  0.80935000  0.62878000  1.0
  S2-  S3  1  0.61870000  0.80935000  0.82878000  1.0
  S2-  S3  1  0.61870000  0.30935000  0.12374000  1.0
  S2-  S3  1  0.61870000  0.30935000  0.32374000  1.0
  S2-  S3  1  0.61870000  0.30935000  0.52374000  1.0
  S2-  S3  1  0.61870000  0.30935000  0.72374000  1.0
  S2-  S3  1  0.61870000  0.30935000  0.92374000  1.0
  S2-  S3  1  0.61870000  0.80935000  0.12374000  1.0
  S2-  S3  1  0.61870000  0.80935000  0.32374000  1.0
  S2-  S3  1  0.61870000  0.80935000  0.52374000  1.0
  S2-  S3  1  0.61870000  0.80935000  0.72374000  1.0
  S2-  S3  1  0.61870000  0.80935000  0.92374000  1.0
