# generated using pymatgen
data_Li16SnGe3Se16
_symmetry_space_group_name_H-M   'P 1'
_cell_length_a   13.00472000
_cell_length_b   14.79777000
_cell_length_c   16.39814000
_cell_angle_alpha   90.00000000
_cell_angle_beta   90.00000000
_cell_angle_gamma   90.00000000
_symmetry_Int_Tables_number   1
_chemical_formula_structural   Li16SnGe3Se16
_chemical_formula_sum   'Li64 Sn4 Ge12 Se64'
_cell_volume   3155.67208979
_cell_formula_units_Z   4
loop_
 _symmetry_equiv_pos_site_id
 _symmetry_equiv_pos_as_xyz
  1  'x, y, z'
loop_
 _atom_type_symbol
 _atom_type_oxidation_number
  Li+  1.0
  Sn4+  4.0
  Ge4+  4.0
  Se2-  -2.0
loop_
 _atom_site_type_symbol
 _atom_site_label
 _atom_site_symmetry_multiplicity
 _atom_site_fract_x
 _atom_site_fract_y
 _atom_site_fract_z
 _atom_site_occupancy
  Li+  Li0  1  0.31465000  0.41420000  0.62500000  1.0
  Li+  Li1  1  0.31465000  0.41420000  0.12500000  1.0
  Li+  Li2  1  0.81465000  0.41420000  0.62500000  1.0
  Li+  Li3  1  0.81465000  0.41420000  0.12500000  1.0
  Li+  Li4  1  0.18535000  0.58580000  0.37500000  1.0
  Li+  Li5  1  0.18520203  0.58633569  0.87492457  1.0
  Li+  Li6  1  0.68535000  0.58580000  0.37500000  1.0
  Li+  Li7  1  0.68535000  0.58580000  0.87500000  1.0
  Li+  Li8  1  0.06465000  0.08580000  0.37500000  1.0
  Li+  Li9  1  0.06536655  0.08319967  0.87564333  1.0
  Li+  Li10  1  0.56604795  0.08775841  0.37115115  1.0
  Li+  Li11  1  0.56465000  0.08580000  0.87500000  1.0
  Li+  Li12  1  0.43535000  0.91420000  0.62500000  1.0
  Li+  Li13  1  0.43535000  0.91420000  0.12500000  1.0
  Li+  Li14  1  0.93535000  0.91420000  0.62500000  1.0
  Li+  Li15  1  0.93535000  0.91420000  0.12500000  1.0
  Li+  Li16  1  0.16500000  0.32870000  0.74400000  1.0
  Li+  Li17  1  0.16500000  0.32870000  0.24400000  1.0
  Li+  Li18  1  0.41500000  0.17130000  0.49400000  1.0
  Li+  Li19  1  0.41976662  0.17034388  0.99425508  1.0
  Li+  Li20  1  0.59026911  0.82892028  0.74444956  1.0
  Li+  Li21  1  0.58500000  0.82870000  0.24400000  1.0
  Li+  Li22  1  0.25963364  0.00734355  0.73886698  1.0
  Li+  Li23  1  0.26315000  0.00400000  0.23960000  1.0
  Li+  Li24  1  0.76266597  0.00281153  0.73871173  1.0
  Li+  Li25  1  0.76315000  0.00400000  0.23960000  1.0
  Li+  Li26  1  0.01315000  0.49600000  0.26040000  1.0
  Li+  Li27  1  0.01315000  0.49600000  0.76040000  1.0
  Li+  Li28  1  0.51315000  0.49600000  0.26040000  1.0
  Li+  Li29  1  0.51315000  0.49600000  0.76040000  1.0
  Li+  Li30  1  0.51315000  0.49600000  0.48960000  1.0
  Li+  Li31  1  0.51315000  0.49600000  0.98960000  1.0
  Li+  Li32  1  0.76315000  0.00400000  0.51040000  1.0
  Li+  Li33  1  0.76315000  0.00400000  0.01040000  1.0
  Li+  Li34  1  0.98685000  0.50400000  0.51040000  1.0
  Li+  Li35  1  0.98685000  0.50400000  0.01040000  1.0
  Li+  Li36  1  0.48685000  0.50400000  0.73960000  1.0
  Li+  Li37  1  0.48685000  0.50400000  0.23960000  1.0
  Li+  Li38  1  0.34510000  0.17530000  0.74915000  1.0
  Li+  Li39  1  0.34133929  0.17559981  0.25409733  1.0
  Li+  Li40  1  0.84510000  0.17530000  0.74915000  1.0
  Li+  Li41  1  0.83990957  0.17515609  0.24522064  1.0
  Li+  Li42  1  0.15490000  0.82470000  0.49915000  1.0
  Li+  Li43  1  0.15490000  0.82470000  0.99915000  1.0
  Li+  Li44  1  0.65490000  0.82470000  0.49915000  1.0
  Li+  Li45  1  0.65490000  0.82470000  0.99915000  1.0
  Li+  Li46  1  0.59510000  0.32470000  0.25085000  1.0
  Li+  Li47  1  0.59510000  0.32470000  0.75085000  1.0
  Li+  Li48  1  0.09510000  0.32470000  0.49915000  1.0
  Li+  Li49  1  0.09853611  0.32161645  0.00219121  1.0
  Li+  Li50  1  0.59510000  0.32470000  0.49915000  1.0
  Li+  Li51  1  0.59510000  0.32470000  0.99915000  1.0
  Li+  Li52  1  0.34510000  0.17530000  0.50085000  1.0
  Li+  Li53  1  0.34510000  0.17530000  0.00085000  1.0
  Li+  Li54  1  0.15490000  0.82470000  0.25085000  1.0
  Li+  Li55  1  0.15490000  0.82470000  0.75085000  1.0
  Li+  Li56  1  0.40556897  0.67945819  0.50139806  1.0
  Li+  Li57  1  0.40490000  0.67530000  0.00085000  1.0
  Li+  Li58  1  0.90490000  0.67530000  0.50085000  1.0
  Li+  Li59  1  0.90540295  0.67638953  0.00531911  1.0
  Li+  Li60  1  0.40490000  0.67530000  0.74915000  1.0
  Li+  Li61  1  0.40235133  0.67527863  0.24831773  1.0
  Li+  Li62  1  0.90490000  0.67530000  0.74915000  1.0
  Li+  Li63  1  0.90490000  0.67530000  0.24915000  1.0
  Sn4+  Sn64  1  0.32275000  0.41066000  0.37500000  1.0
  Sn4+  Sn65  1  0.32275000  0.41066000  0.87500000  1.0
  Sn4+  Sn66  1  0.07256628  0.08969941  0.62507681  1.0
  Sn4+  Sn67  1  0.06949658  0.08653291  0.12118162  1.0
  Ge4+  Ge68  1  0.82284003  0.41427797  0.37492984  1.0
  Ge4+  Ge69  1  0.82612222  0.40676914  0.87726602  1.0
  Ge4+  Ge70  1  0.17725000  0.58934000  0.62500000  1.0
  Ge4+  Ge71  1  0.17725000  0.58934000  0.12500000  1.0
  Ge4+  Ge72  1  0.67725000  0.58934000  0.62500000  1.0
  Ge4+  Ge73  1  0.67544027  0.58871553  0.12373336  1.0
  Ge4+  Ge74  1  0.57275000  0.08934000  0.62500000  1.0
  Ge4+  Ge75  1  0.57275000  0.08934000  0.12500000  1.0
  Ge4+  Ge76  1  0.42725000  0.91066000  0.37500000  1.0
  Ge4+  Ge77  1  0.42958123  0.90862169  0.87228531  1.0
  Ge4+  Ge78  1  0.92725000  0.91066000  0.37500000  1.0
  Ge4+  Ge79  1  0.92725000  0.91066000  0.87500000  1.0
  Se2-  Se80  1  0.38962436  0.33935825  0.25492202  1.0
  Se2-  Se81  1  0.38862000  0.34184000  0.75477500  1.0
  Se2-  Se82  1  0.88862000  0.34184000  0.25477500  1.0
  Se2-  Se83  1  0.88862000  0.34184000  0.75477500  1.0
  Se2-  Se84  1  0.11016534  0.65924644  0.50198448  1.0
  Se2-  Se85  1  0.11023081  0.66262666  0.00204475  1.0
  Se2-  Se86  1  0.61138000  0.65816000  0.50477500  1.0
  Se2-  Se87  1  0.61138000  0.65816000  0.00477500  1.0
  Se2-  Se88  1  0.13550924  0.16071858  0.74324134  1.0
  Se2-  Se89  1  0.13862000  0.15816000  0.24522500  1.0
  Se2-  Se90  1  0.63264450  0.15563895  0.74537445  1.0
  Se2-  Se91  1  0.63862000  0.15816000  0.24522500  1.0
  Se2-  Se92  1  0.13862000  0.15816000  0.50477500  1.0
  Se2-  Se93  1  0.13862000  0.15816000  0.00477500  1.0
  Se2-  Se94  1  0.63653787  0.15924214  0.50506336  1.0
  Se2-  Se95  1  0.63415113  0.15622238  0.00807685  1.0
  Se2-  Se96  1  0.38862000  0.34184000  0.49522500  1.0
  Se2-  Se97  1  0.38862000  0.34184000  0.99522500  1.0
  Se2-  Se98  1  0.88862000  0.34184000  0.49522500  1.0
  Se2-  Se99  1  0.88862000  0.34184000  0.99522500  1.0
  Se2-  Se100  1  0.11138000  0.65816000  0.74522500  1.0
  Se2-  Se101  1  0.11138000  0.65816000  0.24522500  1.0
  Se2-  Se102  1  0.61138000  0.65816000  0.74522500  1.0
  Se2-  Se103  1  0.61138000  0.65816000  0.24522500  1.0
  Se2-  Se104  1  0.36138000  0.84184000  0.49522500  1.0
  Se2-  Se105  1  0.36138000  0.84184000  0.99522500  1.0
  Se2-  Se106  1  0.86306735  0.83968204  0.49329256  1.0
  Se2-  Se107  1  0.86138000  0.84184000  0.99522500  1.0
  Se2-  Se108  1  0.36138000  0.84184000  0.25477500  1.0
  Se2-  Se109  1  0.36138000  0.84184000  0.75477500  1.0
  Se2-  Se110  1  0.86138000  0.84184000  0.25477500  1.0
  Se2-  Se111  1  0.86336890  0.84053308  0.75367451  1.0
  Se2-  Se112  1  0.38970000  0.08681000  0.62500000  1.0
  Se2-  Se113  1  0.38970000  0.08681000  0.12500000  1.0
  Se2-  Se114  1  0.88970000  0.08681000  0.62500000  1.0
  Se2-  Se115  1  0.88834102  0.08517970  0.12329612  1.0
  Se2-  Se116  1  0.10812381  0.91206213  0.37194431  1.0
  Se2-  Se117  1  0.11030000  0.91319000  0.87500000  1.0
  Se2-  Se118  1  0.61120718  0.91160555  0.37656260  1.0
  Se2-  Se119  1  0.61030000  0.91319000  0.87500000  1.0
  Se2-  Se120  1  0.13970000  0.41319000  0.37500000  1.0
  Se2-  Se121  1  0.13770244  0.41101201  0.87590090  1.0
  Se2-  Se122  1  0.63970000  0.41319000  0.37500000  1.0
  Se2-  Se123  1  0.63789479  0.40964919  0.87588122  1.0
  Se2-  Se124  1  0.36030000  0.58681000  0.62500000  1.0
  Se2-  Se125  1  0.36030000  0.58681000  0.12500000  1.0
  Se2-  Se126  1  0.86196743  0.58473146  0.62858605  1.0
  Se2-  Se127  1  0.86030000  0.58681000  0.12500000  1.0
  Se2-  Se128  1  0.36420000  0.06343000  0.37500000  1.0
  Se2-  Se129  1  0.36420000  0.06343000  0.87500000  1.0
  Se2-  Se130  1  0.86420000  0.06343000  0.37500000  1.0
  Se2-  Se131  1  0.86420000  0.06343000  0.87500000  1.0
  Se2-  Se132  1  0.13580000  0.93657000  0.62500000  1.0
  Se2-  Se133  1  0.13580000  0.93657000  0.12500000  1.0
  Se2-  Se134  1  0.63580000  0.93657000  0.62500000  1.0
  Se2-  Se135  1  0.63580000  0.93657000  0.12500000  1.0
  Se2-  Se136  1  0.11420000  0.43657000  0.62500000  1.0
  Se2-  Se137  1  0.11420000  0.43657000  0.12500000  1.0
  Se2-  Se138  1  0.61420000  0.43657000  0.62500000  1.0
  Se2-  Se139  1  0.60976946  0.43817882  0.12497814  1.0
  Se2-  Se140  1  0.38580000  0.56343000  0.37500000  1.0
  Se2-  Se141  1  0.38580000  0.56343000  0.87500000  1.0
  Se2-  Se142  1  0.88347352  0.56101187  0.37655052  1.0
  Se2-  Se143  1  0.88580000  0.56343000  0.87500000  1.0
