# generated using pymatgen
data_Li16SnGe3Se16
_symmetry_space_group_name_H-M   'P 1'
_cell_length_a   16.51250246
_cell_length_b   13.09541637
_cell_length_c   14.90097130
_cell_angle_alpha   90.00000000
_cell_angle_beta   90.00000000
_cell_angle_gamma   90.00000000
_symmetry_Int_Tables_number   1
_chemical_formula_structural   Li16SnGe3Se16
_chemical_formula_sum   'Li64 Sn4 Ge12 Se64'
_cell_volume   3222.15764792
_cell_formula_units_Z   4
loop_
 _symmetry_equiv_pos_site_id
 _symmetry_equiv_pos_as_xyz
  1  'x, y, z'
loop_
 _atom_type_symbol
 _atom_type_oxidation_number
  Li+  1.0
  Sn4+  4.0
  Ge4+  4.0
  Se2-  -2.0
loop_
 _atom_site_type_symbol
 _atom_site_label
 _atom_site_symmetry_multiplicity
 _atom_site_fract_x
 _atom_site_fract_y
 _atom_site_fract_z
 _atom_site_occupancy
  Li+  Li0  1  0.87500000  0.35201667  0.58580000  1.0
  Li+  Li1  1  0.37500000  0.35201667  0.58580000  1.0
  Li+  Li2  1  0.87500000  0.85201667  0.58580000  1.0
  Li+  Li3  1  0.37500000  0.85201667  0.58580000  1.0
  Li+  Li4  1  0.62500000  0.48131667  0.41420000  1.0
  Li+  Li5  1  0.12500000  0.48131667  0.41420000  1.0
  Li+  Li6  1  0.62500000  0.98131667  0.41420000  1.0
  Li+  Li7  1  0.12500000  0.98131667  0.41420000  1.0
  Li+  Li8  1  0.62500000  0.60201667  0.91420000  1.0
  Li+  Li9  1  0.12500000  0.60201667  0.91420000  1.0
  Li+  Li10  1  0.62500000  0.10201667  0.91420000  1.0
  Li+  Li11  1  0.12500000  0.10201667  0.91420000  1.0
  Li+  Li12  1  0.87500000  0.23131667  0.08580000  1.0
  Li+  Li13  1  0.37500000  0.23131667  0.08580000  1.0
  Li+  Li14  1  0.87500000  0.73131667  0.08580000  1.0
  Li+  Li15  1  0.37500000  0.73131667  0.08580000  1.0
  Li+  Li16  1  0.99400000  0.50166667  0.67130000  1.0
  Li+  Li17  1  0.49400000  0.50166667  0.67130000  1.0
  Li+  Li18  1  0.74400000  0.25166667  0.82870000  1.0
  Li+  Li19  1  0.24400000  0.25166667  0.82870000  1.0
  Li+  Li20  1  0.99400000  0.08166667  0.17130000  1.0
  Li+  Li21  1  0.49400000  0.08166667  0.17130000  1.0
  Li+  Li22  1  0.98960000  0.40351667  0.99600000  1.0
  Li+  Li23  1  0.48960000  0.40351667  0.99600000  1.0
  Li+  Li24  1  0.98960000  0.90351667  0.99600000  1.0
  Li+  Li25  1  0.48960000  0.90351667  0.99600000  1.0
  Li+  Li26  1  0.51040000  0.65351667  0.50400000  1.0
  Li+  Li27  1  0.01040000  0.65351667  0.50400000  1.0
  Li+  Li28  1  0.51040000  0.15351667  0.50400000  1.0
  Li+  Li29  1  0.01040000  0.15351667  0.50400000  1.0
  Li+  Li30  1  0.73960000  0.15351667  0.50400000  1.0
  Li+  Li31  1  0.23960000  0.15351667  0.50400000  1.0
  Li+  Li32  1  0.76040000  0.90351667  0.99600000  1.0
  Li+  Li33  1  0.26040000  0.90351667  0.99600000  1.0
  Li+  Li34  1  0.76040000  0.67981667  0.49600000  1.0
  Li+  Li35  1  0.26040000  0.67981667  0.49600000  1.0
  Li+  Li36  1  0.98960000  0.17981667  0.49600000  1.0
  Li+  Li37  1  0.48960000  0.17981667  0.49600000  1.0
  Li+  Li38  1  0.99915000  0.32156667  0.82470000  1.0
  Li+  Li39  1  0.49915000  0.32156667  0.82470000  1.0
  Li+  Li40  1  0.99915000  0.82156667  0.82470000  1.0
  Li+  Li41  1  0.49915000  0.82156667  0.82470000  1.0
  Li+  Li42  1  0.74915000  0.51176667  0.17530000  1.0
  Li+  Li43  1  0.24915000  0.51176667  0.17530000  1.0
  Li+  Li44  1  0.74915000  0.01176667  0.17530000  1.0
  Li+  Li45  1  0.24915000  0.01176667  0.17530000  1.0
  Li+  Li46  1  0.50085000  0.07156667  0.67530000  1.0
  Li+  Li47  1  0.00085000  0.07156667  0.67530000  1.0
  Li+  Li48  1  0.74915000  0.57156667  0.67530000  1.0
  Li+  Li49  1  0.24915000  0.57156667  0.67530000  1.0
  Li+  Li50  1  0.74915000  0.07156667  0.67530000  1.0
  Li+  Li51  1  0.24915000  0.07156667  0.67530000  1.0
  Li+  Li52  1  0.75085000  0.32156667  0.82470000  1.0
  Li+  Li53  1  0.25085000  0.32156667  0.82470000  1.0
  Li+  Li54  1  0.50085000  0.51176667  0.17530000  1.0
  Li+  Li55  1  0.00085000  0.51176667  0.17530000  1.0
  Li+  Li56  1  0.75085000  0.26176667  0.32470000  1.0
  Li+  Li57  1  0.25085000  0.26176667  0.32470000  1.0
  Li+  Li58  1  0.75085000  0.76176667  0.32470000  1.0
  Li+  Li59  1  0.25085000  0.76176667  0.32470000  1.0
  Li+  Li60  1  0.99915000  0.26176667  0.32470000  1.0
  Li+  Li61  1  0.49915000  0.26176667  0.32470000  1.0
  Li+  Li62  1  0.99915000  0.76176667  0.32470000  1.0
  Li+  Li63  1  0.49915000  0.76176667  0.32470000  1.0
  Sn4+  Sn64  1  0.62500000  0.34391667  0.58934000  1.0
  Sn4+  Sn65  1  0.12500000  0.34391667  0.58934000  1.0
  Sn4+  Sn66  1  0.87500000  0.59391667  0.91066000  1.0
  Sn4+  Sn67  1  0.37500000  0.59391667  0.91066000  1.0
  Ge4+  Ge68  1  0.62500000  0.84391667  0.58934000  1.0
  Ge4+  Ge69  1  0.12500000  0.84391667  0.58934000  1.0
  Ge4+  Ge70  1  0.87500000  0.48941667  0.41066000  1.0
  Ge4+  Ge71  1  0.37500000  0.48941667  0.41066000  1.0
  Ge4+  Ge72  1  0.87500000  0.98941667  0.41066000  1.0
  Ge4+  Ge73  1  0.37500000  0.98941667  0.41066000  1.0
  Ge4+  Ge74  1  0.87500000  0.09391667  0.91066000  1.0
  Ge4+  Ge75  1  0.37500000  0.09391667  0.91066000  1.0
  Ge4+  Ge76  1  0.62500000  0.23941667  0.08934000  1.0
  Ge4+  Ge77  1  0.12500000  0.23941667  0.08934000  1.0
  Ge4+  Ge78  1  0.62500000  0.73941667  0.08934000  1.0
  Ge4+  Ge79  1  0.12500000  0.73941667  0.08934000  1.0
  Se2-  Se80  1  0.50477500  0.27804667  0.65816000  1.0
  Se2-  Se81  1  0.00477500  0.27804667  0.65816000  1.0
  Se2-  Se82  1  0.50477500  0.77804667  0.65816000  1.0
  Se2-  Se83  1  0.00477500  0.77804667  0.65816000  1.0
  Se2-  Se84  1  0.75477500  0.55528667  0.34184000  1.0
  Se2-  Se85  1  0.25477500  0.55528667  0.34184000  1.0
  Se2-  Se86  1  0.75477500  0.05528667  0.34184000  1.0
  Se2-  Se87  1  0.25477500  0.05528667  0.34184000  1.0
  Se2-  Se88  1  0.99522500  0.52804667  0.84184000  1.0
  Se2-  Se89  1  0.49522500  0.52804667  0.84184000  1.0
  Se2-  Se90  1  0.99522500  0.02804667  0.84184000  1.0
  Se2-  Se91  1  0.49522500  0.02804667  0.84184000  1.0
  Se2-  Se92  1  0.75477500  0.52804667  0.84184000  1.0
  Se2-  Se93  1  0.25477500  0.52804667  0.84184000  1.0
  Se2-  Se94  1  0.75477500  0.02804667  0.84184000  1.0
  Se2-  Se95  1  0.25477500  0.02804667  0.84184000  1.0
  Se2-  Se96  1  0.74522500  0.27804667  0.65816000  1.0
  Se2-  Se97  1  0.24522500  0.27804667  0.65816000  1.0
  Se2-  Se98  1  0.74522500  0.77804667  0.65816000  1.0
  Se2-  Se99  1  0.24522500  0.77804667  0.65816000  1.0
  Se2-  Se100  1  0.99522500  0.55528667  0.34184000  1.0
  Se2-  Se101  1  0.49522500  0.55528667  0.34184000  1.0
  Se2-  Se102  1  0.99522500  0.05528667  0.34184000  1.0
  Se2-  Se103  1  0.49522500  0.05528667  0.34184000  1.0
  Se2-  Se104  1  0.74522500  0.30528667  0.15816000  1.0
  Se2-  Se105  1  0.24522500  0.30528667  0.15816000  1.0
  Se2-  Se106  1  0.74522500  0.80528667  0.15816000  1.0
  Se2-  Se107  1  0.24522500  0.80528667  0.15816000  1.0
  Se2-  Se108  1  0.50477500  0.30528667  0.15816000  1.0
  Se2-  Se109  1  0.00477500  0.30528667  0.15816000  1.0
  Se2-  Se110  1  0.50477500  0.80528667  0.15816000  1.0
  Se2-  Se111  1  0.00477500  0.80528667  0.15816000  1.0
  Se2-  Se112  1  0.87500000  0.27696667  0.91319000  1.0
  Se2-  Se113  1  0.37500000  0.27696667  0.91319000  1.0
  Se2-  Se114  1  0.87500000  0.77696667  0.91319000  1.0
  Se2-  Se115  1  0.37500000  0.77696667  0.91319000  1.0
  Se2-  Se116  1  0.62500000  0.55636667  0.08681000  1.0
  Se2-  Se117  1  0.12500000  0.55636667  0.08681000  1.0
  Se2-  Se118  1  0.62500000  0.05636667  0.08681000  1.0
  Se2-  Se119  1  0.12500000  0.05636667  0.08681000  1.0
  Se2-  Se120  1  0.62500000  0.52696667  0.58681000  1.0
  Se2-  Se121  1  0.12500000  0.52696667  0.58681000  1.0
  Se2-  Se122  1  0.62500000  0.02696667  0.58681000  1.0
  Se2-  Se123  1  0.12500000  0.02696667  0.58681000  1.0
  Se2-  Se124  1  0.87500000  0.30636667  0.41319000  1.0
  Se2-  Se125  1  0.37500000  0.30636667  0.41319000  1.0
  Se2-  Se126  1  0.87500000  0.80636667  0.41319000  1.0
  Se2-  Se127  1  0.37500000  0.80636667  0.41319000  1.0
  Se2-  Se128  1  0.62500000  0.30246667  0.93657000  1.0
  Se2-  Se129  1  0.12500000  0.30246667  0.93657000  1.0
  Se2-  Se130  1  0.62500000  0.80246667  0.93657000  1.0
  Se2-  Se131  1  0.12500000  0.80246667  0.93657000  1.0
  Se2-  Se132  1  0.87500000  0.53086667  0.06343000  1.0
  Se2-  Se133  1  0.37500000  0.53086667  0.06343000  1.0
  Se2-  Se134  1  0.87500000  0.03086667  0.06343000  1.0
  Se2-  Se135  1  0.37500000  0.03086667  0.06343000  1.0
  Se2-  Se136  1  0.87500000  0.55246667  0.56343000  1.0
  Se2-  Se137  1  0.37500000  0.55246667  0.56343000  1.0
  Se2-  Se138  1  0.87500000  0.05246667  0.56343000  1.0
  Se2-  Se139  1  0.37500000  0.05246667  0.56343000  1.0
  Se2-  Se140  1  0.62500000  0.28086667  0.43657000  1.0
  Se2-  Se141  1  0.12500000  0.28086667  0.43657000  1.0
  Se2-  Se142  1  0.62500000  0.78086667  0.43657000  1.0
  Se2-  Se143  1  0.12500000  0.78086667  0.43657000  1.0
