# generated using pymatgen
data_Li16SnGe3Se16
_symmetry_space_group_name_H-M   'P 1'
_cell_length_a   13.00472000
_cell_length_b   16.39814000
_cell_length_c   14.79777000
_cell_angle_alpha   90.00000000
_cell_angle_beta   90.00000000
_cell_angle_gamma   90.00000000
_symmetry_Int_Tables_number   1
_chemical_formula_structural   Li16SnGe3Se16
_chemical_formula_sum   'Li64 Sn4 Ge12 Se64'
_cell_volume   3155.67208979
_cell_formula_units_Z   4
loop_
 _symmetry_equiv_pos_site_id
 _symmetry_equiv_pos_as_xyz
  1  'x, y, z'
loop_
 _atom_type_symbol
 _atom_type_oxidation_number
  Li+  1.0
  Sn4+  4.0
  Ge4+  4.0
  Se2-  -2.0
loop_
 _atom_site_type_symbol
 _atom_site_label
 _atom_site_symmetry_multiplicity
 _atom_site_fract_x
 _atom_site_fract_y
 _atom_site_fract_z
 _atom_site_occupancy
  Li+  Li1  1  0.31465000  0.12500000  0.58580000  1.0
  Li+  Li1  1  0.31465000  0.62500000  0.58580000  1.0
  Li+  Li1  1  0.81465000  0.12500000  0.58580000  1.0
  Li+  Li1  1  0.81465000  0.62500000  0.58580000  1.0
  Li+  Li1  1  0.18535000  0.37500000  0.41420000  1.0
  Li+  Li1  1  0.18535000  0.87500000  0.41420000  1.0
  Li+  Li1  1  0.68535000  0.37500000  0.41420000  1.0
  Li+  Li1  1  0.68535000  0.87500000  0.41420000  1.0
  Li+  Li1  1  0.06465000  0.37500000  0.91420000  1.0
  Li+  Li1  1  0.06465000  0.87500000  0.91420000  1.0
  Li+  Li1  1  0.56465000  0.37500000  0.91420000  1.0
  Li+  Li1  1  0.56465000  0.87500000  0.91420000  1.0
  Li+  Li1  1  0.43535000  0.12500000  0.08580000  1.0
  Li+  Li1  1  0.43535000  0.62500000  0.08580000  1.0
  Li+  Li1  1  0.93535000  0.12500000  0.08580000  1.0
  Li+  Li1  1  0.93535000  0.62500000  0.08580000  1.0
  Li+  Li8  1  0.16500000  0.00600000  0.67130000  1.0
  Li+  Li8  1  0.16500000  0.50600000  0.67130000  1.0
  Li+  Li9  1  0.41500000  0.25600000  0.82870000  1.0
  Li+  Li9  1  0.41500000  0.75600000  0.82870000  1.0
  Li+  Li10  1  0.58500000  0.00600000  0.17130000  1.0
  Li+  Li10  1  0.58500000  0.50600000  0.17130000  1.0
  Li+  Li11  1  0.26315000  0.01040000  0.99600000  1.0
  Li+  Li11  1  0.26315000  0.51040000  0.99600000  1.0
  Li+  Li12  1  0.76315000  0.01040000  0.99600000  1.0
  Li+  Li12  1  0.76315000  0.51040000  0.99600000  1.0
  Li+  Li13  1  0.01315000  0.48960000  0.50400000  1.0
  Li+  Li13  1  0.01315000  0.98960000  0.50400000  1.0
  Li+  Li14  1  0.51315000  0.48960000  0.50400000  1.0
  Li+  Li14  1  0.51315000  0.98960000  0.50400000  1.0
  Li+  Li15  1  0.51315000  0.26040000  0.50400000  1.0
  Li+  Li15  1  0.51315000  0.76040000  0.50400000  1.0
  Li+  Li16  1  0.76315000  0.23960000  0.99600000  1.0
  Li+  Li16  1  0.76315000  0.73960000  0.99600000  1.0
  Li+  Li17  1  0.98685000  0.23960000  0.49600000  1.0
  Li+  Li17  1  0.98685000  0.73960000  0.49600000  1.0
  Li+  Li18  1  0.48685000  0.01040000  0.49600000  1.0
  Li+  Li18  1  0.48685000  0.51040000  0.49600000  1.0
  Li+  Li19  1  0.34510000  0.00085000  0.82470000  1.0
  Li+  Li19  1  0.34510000  0.50085000  0.82470000  1.0
  Li+  Li20  1  0.84510000  0.00085000  0.82470000  1.0
  Li+  Li20  1  0.84510000  0.50085000  0.82470000  1.0
  Li+  Li21  1  0.15490000  0.25085000  0.17530000  1.0
  Li+  Li21  1  0.15490000  0.75085000  0.17530000  1.0
  Li+  Li22  1  0.65490000  0.25085000  0.17530000  1.0
  Li+  Li22  1  0.65490000  0.75085000  0.17530000  1.0
  Li+  Li23  1  0.59510000  0.49915000  0.67530000  1.0
  Li+  Li23  1  0.59510000  0.99915000  0.67530000  1.0
  Li+  Li24  1  0.09510000  0.25085000  0.67530000  1.0
  Li+  Li24  1  0.09510000  0.75085000  0.67530000  1.0
  Li+  Li25  1  0.59510000  0.25085000  0.67530000  1.0
  Li+  Li25  1  0.59510000  0.75085000  0.67530000  1.0
  Li+  Li26  1  0.34510000  0.24915000  0.82470000  1.0
  Li+  Li26  1  0.34510000  0.74915000  0.82470000  1.0
  Li+  Li27  1  0.15490000  0.49915000  0.17530000  1.0
  Li+  Li27  1  0.15490000  0.99915000  0.17530000  1.0
  Li+  Li28  1  0.40490000  0.24915000  0.32470000  1.0
  Li+  Li28  1  0.40490000  0.74915000  0.32470000  1.0
  Li+  Li29  1  0.90490000  0.24915000  0.32470000  1.0
  Li+  Li29  1  0.90490000  0.74915000  0.32470000  1.0
  Li+  Li30  1  0.40490000  0.00085000  0.32470000  1.0
  Li+  Li30  1  0.40490000  0.50085000  0.32470000  1.0
  Li+  Li31  1  0.90490000  0.00085000  0.32470000  1.0
  Li+  Li31  1  0.90490000  0.50085000  0.32470000  1.0
  Sn4+  Sn32  1  0.32275000  0.37500000  0.58934000  1.0
  Sn4+  Sn32  1  0.32275000  0.87500000  0.58934000  1.0
  Sn4+  Sn33  1  0.07275000  0.12500000  0.91066000  1.0
  Sn4+  Sn33  1  0.07275000  0.62500000  0.91066000  1.0
  Ge4+  Ge34  1  0.82275000  0.37500000  0.58934000  1.0
  Ge4+  Ge34  1  0.82275000  0.87500000  0.58934000  1.0
  Ge4+  Ge35  1  0.17725000  0.12500000  0.41066000  1.0
  Ge4+  Ge35  1  0.17725000  0.62500000  0.41066000  1.0
  Ge4+  Ge36  1  0.67725000  0.12500000  0.41066000  1.0
  Ge4+  Ge36  1  0.67725000  0.62500000  0.41066000  1.0
  Ge4+  Ge37  1  0.57275000  0.12500000  0.91066000  1.0
  Ge4+  Ge37  1  0.57275000  0.62500000  0.91066000  1.0
  Ge4+  Ge38  1  0.42725000  0.37500000  0.08934000  1.0
  Ge4+  Ge38  1  0.42725000  0.87500000  0.08934000  1.0
  Ge4+  Ge39  1  0.92725000  0.37500000  0.08934000  1.0
  Ge4+  Ge39  1  0.92725000  0.87500000  0.08934000  1.0
  Se2-  Se1  1  0.38862000  0.49522500  0.65816000  1.0
  Se2-  Se1  1  0.38862000  0.99522500  0.65816000  1.0
  Se2-  Se1  1  0.88862000  0.49522500  0.65816000  1.0
  Se2-  Se1  1  0.88862000  0.99522500  0.65816000  1.0
  Se2-  Se1  1  0.11138000  0.24522500  0.34184000  1.0
  Se2-  Se1  1  0.11138000  0.74522500  0.34184000  1.0
  Se2-  Se1  1  0.61138000  0.24522500  0.34184000  1.0
  Se2-  Se1  1  0.61138000  0.74522500  0.34184000  1.0
  Se2-  Se1  1  0.13862000  0.00477500  0.84184000  1.0
  Se2-  Se1  1  0.13862000  0.50477500  0.84184000  1.0
  Se2-  Se1  1  0.63862000  0.00477500  0.84184000  1.0
  Se2-  Se1  1  0.63862000  0.50477500  0.84184000  1.0
  Se2-  Se1  1  0.13862000  0.24522500  0.84184000  1.0
  Se2-  Se1  1  0.13862000  0.74522500  0.84184000  1.0
  Se2-  Se1  1  0.63862000  0.24522500  0.84184000  1.0
  Se2-  Se1  1  0.63862000  0.74522500  0.84184000  1.0
  Se2-  Se1  1  0.38862000  0.25477500  0.65816000  1.0
  Se2-  Se1  1  0.38862000  0.75477500  0.65816000  1.0
  Se2-  Se1  1  0.88862000  0.25477500  0.65816000  1.0
  Se2-  Se1  1  0.88862000  0.75477500  0.65816000  1.0
  Se2-  Se1  1  0.11138000  0.00477500  0.34184000  1.0
  Se2-  Se1  1  0.11138000  0.50477500  0.34184000  1.0
  Se2-  Se1  1  0.61138000  0.00477500  0.34184000  1.0
  Se2-  Se1  1  0.61138000  0.50477500  0.34184000  1.0
  Se2-  Se1  1  0.36138000  0.25477500  0.15816000  1.0
  Se2-  Se1  1  0.36138000  0.75477500  0.15816000  1.0
  Se2-  Se1  1  0.86138000  0.25477500  0.15816000  1.0
  Se2-  Se1  1  0.86138000  0.75477500  0.15816000  1.0
  Se2-  Se1  1  0.36138000  0.49522500  0.15816000  1.0
  Se2-  Se1  1  0.36138000  0.99522500  0.15816000  1.0
  Se2-  Se1  1  0.86138000  0.49522500  0.15816000  1.0
  Se2-  Se1  1  0.86138000  0.99522500  0.15816000  1.0
  Se2-  Se2  1  0.38970000  0.12500000  0.91319000  1.0
  Se2-  Se2  1  0.38970000  0.62500000  0.91319000  1.0
  Se2-  Se2  1  0.88970000  0.12500000  0.91319000  1.0
  Se2-  Se2  1  0.88970000  0.62500000  0.91319000  1.0
  Se2-  Se2  1  0.11030000  0.37500000  0.08681000  1.0
  Se2-  Se2  1  0.11030000  0.87500000  0.08681000  1.0
  Se2-  Se2  1  0.61030000  0.37500000  0.08681000  1.0
  Se2-  Se2  1  0.61030000  0.87500000  0.08681000  1.0
  Se2-  Se2  1  0.13970000  0.37500000  0.58681000  1.0
  Se2-  Se2  1  0.13970000  0.87500000  0.58681000  1.0
  Se2-  Se2  1  0.63970000  0.37500000  0.58681000  1.0
  Se2-  Se2  1  0.63970000  0.87500000  0.58681000  1.0
  Se2-  Se2  1  0.36030000  0.12500000  0.41319000  1.0
  Se2-  Se2  1  0.36030000  0.62500000  0.41319000  1.0
  Se2-  Se2  1  0.86030000  0.12500000  0.41319000  1.0
  Se2-  Se2  1  0.86030000  0.62500000  0.41319000  1.0
  Se2-  Se3  1  0.36420000  0.37500000  0.93657000  1.0
  Se2-  Se3  1  0.36420000  0.87500000  0.93657000  1.0
  Se2-  Se3  1  0.86420000  0.37500000  0.93657000  1.0
  Se2-  Se3  1  0.86420000  0.87500000  0.93657000  1.0
  Se2-  Se3  1  0.13580000  0.12500000  0.06343000  1.0
  Se2-  Se3  1  0.13580000  0.62500000  0.06343000  1.0
  Se2-  Se3  1  0.63580000  0.12500000  0.06343000  1.0
  Se2-  Se3  1  0.63580000  0.62500000  0.06343000  1.0
  Se2-  Se3  1  0.11420000  0.12500000  0.56343000  1.0
  Se2-  Se3  1  0.11420000  0.62500000  0.56343000  1.0
  Se2-  Se3  1  0.61420000  0.12500000  0.56343000  1.0
  Se2-  Se3  1  0.61420000  0.62500000  0.56343000  1.0
  Se2-  Se3  1  0.38580000  0.37500000  0.43657000  1.0
  Se2-  Se3  1  0.38580000  0.87500000  0.43657000  1.0
  Se2-  Se3  1  0.88580000  0.37500000  0.43657000  1.0
  Se2-  Se3  1  0.88580000  0.87500000  0.43657000  1.0
