# generated using pymatgen
data_Li61GeP9(S5I)10
_symmetry_space_group_name_H-M   'P 1'
_cell_length_a   14.37739005
_cell_length_b   35.94347512
_cell_length_c   7.18869502
_cell_angle_alpha   60.00000000
_cell_angle_beta   120.00000000
_cell_angle_gamma   120.00000000
_symmetry_Int_Tables_number   1
_chemical_formula_structural   Li61GeP9(S5I)10
_chemical_formula_sum   'Li61 Ge1 P9 S50 I10'
_cell_volume   2626.84943031
_cell_formula_units_Z   1
loop_
 _symmetry_equiv_pos_site_id
 _symmetry_equiv_pos_as_xyz
  1  'x, y, z'
loop_
 _atom_type_symbol
 _atom_type_oxidation_number
  Li+  1.0
  Ge4+  4.0
  P5+  5.0
  S2-  -2.0
  I-  -1.0
loop_
 _atom_site_type_symbol
 _atom_site_label
 _atom_site_symmetry_multiplicity
 _atom_site_fract_x
 _atom_site_fract_y
 _atom_site_fract_z
 _atom_site_occupancy
  Li+  Li0  1  0.24000000  0.90400000  0.73000000  1.0
  Li+  Li1  1  0.01000000  0.50400000  0.27000000  1.0
  Li+  Li2  1  0.51057824  0.90629624  0.27077973  1.0
  Li+  Li3  1  0.51000000  0.70400000  0.27000000  1.0
  Li+  Li4  1  0.74000000  0.99600000  0.73000000  1.0
  Li+  Li5  1  0.74000000  0.39600000  0.73000000  1.0
  Li+  Li6  1  0.51000000  0.10400000  0.73000000  1.0
  Li+  Li7  1  0.01000000  0.99600000  0.27000000  1.0
  Li+  Li8  1  0.01000000  0.39600000  0.27000000  1.0
  Li+  Li9  1  0.50971761  0.59034225  0.26992266  1.0
  Li+  Li10  1  0.51000000  0.19600000  0.27000000  1.0
  Li+  Li11  1  0.24000000  0.19600000  0.27000000  1.0
  Li+  Li12  1  0.19947711  0.88657975  0.72431910  1.0
  Li+  Li13  1  0.19750000  0.28900000  0.72500000  1.0
  Li+  Li14  1  0.19750000  0.08900000  0.72500000  1.0
  Li+  Li15  1  0.70234784  0.88775647  0.72428388  1.0
  Li+  Li16  1  0.70000717  0.68854857  0.72462107  1.0
  Li+  Li17  1  0.69750000  0.08900000  0.72500000  1.0
  Li+  Li18  1  0.01006965  0.71701571  0.19044617  1.0
  Li+  Li19  1  0.51250000  0.92100000  0.19500000  1.0
  Li+  Li20  1  0.51250000  0.52100000  0.19500000  1.0
  Li+  Li21  1  0.27551834  0.79230940  0.71890329  1.0
  Li+  Li22  1  0.27750000  0.39500000  0.72500000  1.0
  Li+  Li23  1  0.77750000  0.99500000  0.72500000  1.0
  Li+  Li24  1  0.77741465  0.79406511  0.72390341  1.0
  Li+  Li25  1  0.77750000  0.59500000  0.72500000  1.0
  Li+  Li26  1  0.77750000  0.19500000  0.72500000  1.0
  Li+  Li27  1  0.27585224  0.52232922  0.72445770  1.0
  Li+  Li28  1  0.77750000  0.52100000  0.72500000  1.0
  Li+  Li29  1  0.78135660  0.32351700  0.72653896  1.0
  Li+  Li30  1  0.77750000  0.12100000  0.72500000  1.0
  Li+  Li31  1  0.01250000  0.48900000  0.72500000  1.0
  Li+  Li32  1  0.01250000  0.28900000  0.72500000  1.0
  Li+  Li33  1  0.51319673  0.68404181  0.72869250  1.0
  Li+  Li34  1  0.51250000  0.28900000  0.72500000  1.0
  Li+  Li35  1  0.01250000  0.12100000  0.72500000  1.0
  Li+  Li36  1  0.01250000  0.28900000  0.35500000  1.0
  Li+  Li37  1  0.01529280  0.09179898  0.35455125  1.0
  Li+  Li38  1  0.51250000  0.68900000  0.35500000  1.0
  Li+  Li39  1  0.51250000  0.48900000  0.35500000  1.0
  Li+  Li40  1  0.01250000  0.79500000  0.35500000  1.0
  Li+  Li41  1  0.01250000  0.59500000  0.35500000  1.0
  Li+  Li42  1  0.51250000  0.99500000  0.35500000  1.0
  Li+  Li43  1  0.19530217  0.39379694  0.71872936  1.0
  Li+  Li44  1  0.19750000  0.19500000  0.72500000  1.0
  Li+  Li45  1  0.69750000  0.79500000  0.72500000  1.0
  Li+  Li46  1  0.69750000  0.59500000  0.72500000  1.0
  Li+  Li47  1  0.69513632  0.39105986  0.72577544  1.0
  Li+  Li48  1  0.01250000  0.99500000  0.19500000  1.0
  Li+  Li49  1  0.00980679  0.59429272  0.19587516  1.0
  Li+  Li50  1  0.51250000  0.79500000  0.19500000  1.0
  Li+  Li51  1  0.51250000  0.39500000  0.19500000  1.0
  Li+  Li52  1  0.27750000  0.79500000  0.35500000  1.0
  Li+  Li53  1  0.27750000  0.59500000  0.35500000  1.0
  Li+  Li54  1  0.27368903  0.19841457  0.35354287  1.0
  Li+  Li55  1  0.77750000  0.79500000  0.35500000  1.0
  Li+  Li56  1  0.77587320  0.59277094  0.35324469  1.0
  Li+  Li57  1  0.19750000  0.59500000  0.19500000  1.0
  Li+  Li58  1  0.69750000  0.99500000  0.19500000  1.0
  Li+  Li59  1  0.69468869  0.39694326  0.18908736  1.0
  Li+  Li60  1  0.69750000  0.19500000  0.19500000  1.0
  Ge4+  Ge61  1  0.74753315  0.50212166  0.25265650  1.0
  P5+  P62  1  0.25000000  0.90000000  0.25000000  1.0
  P5+  P63  1  0.25000000  0.70000000  0.25000000  1.0
  P5+  P64  1  0.25000000  0.50000000  0.25000000  1.0
  P5+  P65  1  0.25046128  0.30052516  0.25071141  1.0
  P5+  P66  1  0.25407732  0.09966793  0.24846198  1.0
  P5+  P67  1  0.75000000  0.90000000  0.25000000  1.0
  P5+  P68  1  0.75072541  0.69808372  0.24817065  1.0
  P5+  P69  1  0.75000000  0.30000000  0.25000000  1.0
  P5+  P70  1  0.75000000  0.10000000  0.25000000  1.0
  S2-  S71  1  0.12641493  0.94797751  0.50260703  1.0
  S2-  S72  1  0.12778094  0.75461175  0.50003854  1.0
  S2-  S73  1  0.12500000  0.55000000  0.50000000  1.0
  S2-  S74  1  0.12500000  0.35000000  0.50000000  1.0
  S2-  S75  1  0.12500000  0.15000000  0.50000000  1.0
  S2-  S76  1  0.62500000  0.95000000  0.50000000  1.0
  S2-  S77  1  0.62500000  0.75000000  0.50000000  1.0
  S2-  S78  1  0.62802985  0.55391680  0.50414560  1.0
  S2-  S79  1  0.62644721  0.35190665  0.49800445  1.0
  S2-  S80  1  0.62690025  0.15195283  0.50153747  1.0
  S2-  S81  1  0.30886500  0.87645400  0.60319000  1.0
  S2-  S82  1  0.30886500  0.67645400  0.60319000  1.0
  S2-  S83  1  0.30886500  0.47645400  0.60319000  1.0
  S2-  S84  1  0.30886500  0.27645400  0.60319000  1.0
  S2-  S85  1  0.30636726  0.07540086  0.60624059  1.0
  S2-  S86  1  0.80886500  0.87645400  0.60319000  1.0
  S2-  S87  1  0.80886500  0.67645400  0.60319000  1.0
  S2-  S88  1  0.80886500  0.47645400  0.60319000  1.0
  S2-  S89  1  0.80886500  0.27645400  0.60319000  1.0
  S2-  S90  1  0.80886500  0.07645400  0.60319000  1.0
  S2-  S91  1  0.30886500  0.87645400  0.13227000  1.0
  S2-  S92  1  0.30886500  0.67645400  0.13227000  1.0
  S2-  S93  1  0.30886500  0.47645400  0.13227000  1.0
  S2-  S94  1  0.30886500  0.27645400  0.13227000  1.0
  S2-  S95  1  0.30886500  0.07645400  0.13227000  1.0
  S2-  S96  1  0.80886500  0.87645400  0.13227000  1.0
  S2-  S97  1  0.80886500  0.67645400  0.13227000  1.0
  S2-  S98  1  0.80886500  0.47645400  0.13227000  1.0
  S2-  S99  1  0.80886500  0.27645400  0.13227000  1.0
  S2-  S100  1  0.80413152  0.07442518  0.13622535  1.0
  S2-  S101  1  0.30732780  0.96665084  0.13643518  1.0
  S2-  S102  1  0.30886500  0.77063800  0.13227000  1.0
  S2-  S103  1  0.30886500  0.57063800  0.13227000  1.0
  S2-  S104  1  0.30886500  0.37063800  0.13227000  1.0
  S2-  S105  1  0.31182679  0.16422088  0.12937293  1.0
  S2-  S106  1  0.80886500  0.97063800  0.13227000  1.0
  S2-  S107  1  0.80886500  0.77063800  0.13227000  1.0
  S2-  S108  1  0.81134740  0.57462508  0.13428537  1.0
  S2-  S109  1  0.80886500  0.37063800  0.13227000  1.0
  S2-  S110  1  0.80886500  0.17063800  0.13227000  1.0
  S2-  S111  1  0.07340500  0.87645400  0.13227000  1.0
  S2-  S112  1  0.07340500  0.67645400  0.13227000  1.0
  S2-  S113  1  0.07340500  0.47645400  0.13227000  1.0
  S2-  S114  1  0.07340500  0.27645400  0.13227000  1.0
  S2-  S115  1  0.07340500  0.07645400  0.13227000  1.0
  S2-  S116  1  0.57340500  0.87645400  0.13227000  1.0
  S2-  S117  1  0.57340500  0.67645400  0.13227000  1.0
  S2-  S118  1  0.57340500  0.47645400  0.13227000  1.0
  S2-  S119  1  0.57340500  0.27645400  0.13227000  1.0
  S2-  S120  1  0.57340500  0.07645400  0.13227000  1.0
  I-  I121  1  0.00000000  0.00000000  0.75000000  1.0
  I-  I122  1  0.00000000  0.80000000  0.75000000  1.0
  I-  I123  1  0.00000000  0.60000000  0.75000000  1.0
  I-  I124  1  0.00000000  0.40000000  0.75000000  1.0
  I-  I125  1  0.00000000  0.20000000  0.75000000  1.0
  I-  I126  1  0.50000000  0.00000000  0.75000000  1.0
  I-  I127  1  0.50000000  0.80000000  0.75000000  1.0
  I-  I128  1  0.50000000  0.60000000  0.75000000  1.0
  I-  I129  1  0.50000000  0.40000000  0.75000000  1.0
  I-  I130  1  0.50000000  0.20000000  0.75000000  1.0
