# generated using pymatgen
data_Li61GeP9(S5I)10
_symmetry_space_group_name_H-M   'P 1'
_cell_length_a   7.19622282
_cell_length_b   14.39244564
_cell_length_c   35.98111410
_cell_angle_alpha   120.00000000
_cell_angle_beta   120.00000000
_cell_angle_gamma   60.00000000
_symmetry_Int_Tables_number   1
_chemical_formula_structural   Li61GeP9(S5I)10
_chemical_formula_sum   'Li61 Ge1 P9 S50 I10'
_cell_volume   2635.11036096
_cell_formula_units_Z   1
loop_
 _symmetry_equiv_pos_site_id
 _symmetry_equiv_pos_as_xyz
  1  'x, y, z'
loop_
 _atom_type_symbol
 _atom_type_oxidation_number
  Li+  1.0
  Ge4+  4.0
  P5+  5.0
  S2-  -2.0
  I-  -1.0
loop_
 _atom_site_type_symbol
 _atom_site_label
 _atom_site_symmetry_multiplicity
 _atom_site_fract_x
 _atom_site_fract_y
 _atom_site_fract_z
 _atom_site_occupancy
  Li+  Li0  1  0.98000000  0.42666667  0.09600000  1.0
  Li+  Li1  1  0.52000000  0.65666667  0.49600000  1.0
  Li+  Li2  1  0.52000000  0.15666667  0.09600000  1.0
  Li+  Li3  1  0.52000000  0.15666667  0.29600000  1.0
  Li+  Li4  1  0.98000000  0.92666667  0.00400000  1.0
  Li+  Li5  1  0.98000000  0.92666667  0.60400000  1.0
  Li+  Li6  1  0.98000000  0.15666667  0.89600000  1.0
  Li+  Li7  1  0.52000000  0.65666667  0.00400000  1.0
  Li+  Li8  1  0.52000000  0.65666667  0.60400000  1.0
  Li+  Li9  1  0.52000000  0.15666667  0.40400000  1.0
  Li+  Li10  1  0.52000000  0.15666667  0.80400000  1.0
  Li+  Li11  1  0.52000000  0.42666667  0.80400000  1.0
  Li+  Li12  1  0.97500000  0.46916667  0.11100000  1.0
  Li+  Li13  1  0.97500000  0.46916667  0.71100000  1.0
  Li+  Li14  1  0.97500000  0.46916667  0.91100000  1.0
  Li+  Li15  1  0.97500000  0.96916667  0.11100000  1.0
  Li+  Li16  1  0.97500000  0.96916667  0.31100000  1.0
  Li+  Li17  1  0.97500000  0.96916667  0.91100000  1.0
  Li+  Li18  1  0.44500000  0.65416667  0.27900000  1.0
  Li+  Li19  1  0.44500000  0.15416667  0.07900000  1.0
  Li+  Li20  1  0.44500000  0.15416667  0.47900000  1.0
  Li+  Li21  1  0.97500000  0.38916667  0.20500000  1.0
  Li+  Li22  1  0.97500000  0.38916667  0.60500000  1.0
  Li+  Li23  1  0.97500000  0.88916667  0.00500000  1.0
  Li+  Li24  1  0.97500000  0.88916667  0.20500000  1.0
  Li+  Li25  1  0.97500000  0.88916667  0.40500000  1.0
  Li+  Li26  1  0.97500000  0.88916667  0.80500000  1.0
  Li+  Li27  1  0.97500000  0.38916667  0.47900000  1.0
  Li+  Li28  1  0.97500000  0.88916667  0.47900000  1.0
  Li+  Li29  1  0.97500000  0.88916667  0.67900000  1.0
  Li+  Li30  1  0.97500000  0.88916667  0.87900000  1.0
  Li+  Li31  1  0.97500000  0.65416667  0.51100000  1.0
  Li+  Li32  1  0.97500000  0.65416667  0.71100000  1.0
  Li+  Li33  1  0.97500000  0.15416667  0.31100000  1.0
  Li+  Li34  1  0.97500000  0.15416667  0.71100000  1.0
  Li+  Li35  1  0.97500000  0.65416667  0.87900000  1.0
  Li+  Li36  1  0.60500000  0.65416667  0.71100000  1.0
  Li+  Li37  1  0.60500000  0.65416667  0.91100000  1.0
  Li+  Li38  1  0.60500000  0.15416667  0.31100000  1.0
  Li+  Li39  1  0.60500000  0.15416667  0.51100000  1.0
  Li+  Li40  1  0.60500000  0.65416667  0.20500000  1.0
  Li+  Li41  1  0.60500000  0.65416667  0.40500000  1.0
  Li+  Li42  1  0.60500000  0.15416667  0.00500000  1.0
  Li+  Li43  1  0.97500000  0.46916667  0.60500000  1.0
  Li+  Li44  1  0.97500000  0.46916667  0.80500000  1.0
  Li+  Li45  1  0.97500000  0.96916667  0.20500000  1.0
  Li+  Li46  1  0.97500000  0.96916667  0.40500000  1.0
  Li+  Li47  1  0.97500000  0.96916667  0.60500000  1.0
  Li+  Li48  1  0.44500000  0.65416667  0.00500000  1.0
  Li+  Li49  1  0.44500000  0.65416667  0.40500000  1.0
  Li+  Li50  1  0.44500000  0.15416667  0.20500000  1.0
  Li+  Li51  1  0.44500000  0.15416667  0.60500000  1.0
  Li+  Li52  1  0.60500000  0.38916667  0.20500000  1.0
  Li+  Li53  1  0.60500000  0.38916667  0.40500000  1.0
  Li+  Li54  1  0.60500000  0.38916667  0.80500000  1.0
  Li+  Li55  1  0.60500000  0.88916667  0.20500000  1.0
  Li+  Li56  1  0.60500000  0.88916667  0.40500000  1.0
  Li+  Li57  1  0.44500000  0.46916667  0.40500000  1.0
  Li+  Li58  1  0.44500000  0.96916667  0.00500000  1.0
  Li+  Li59  1  0.44500000  0.96916667  0.60500000  1.0
  Li+  Li60  1  0.44500000  0.96916667  0.80500000  1.0
  Ge4+  Ge61  1  0.50000000  0.91666667  0.50000000  1.0
  P5+  P62  1  0.50000000  0.41666667  0.10000000  1.0
  P5+  P63  1  0.50000000  0.41666667  0.30000000  1.0
  P5+  P64  1  0.50000000  0.41666667  0.50000000  1.0
  P5+  P65  1  0.50000000  0.41666667  0.70000000  1.0
  P5+  P66  1  0.50000000  0.41666667  0.90000000  1.0
  P5+  P67  1  0.50000000  0.91666667  0.10000000  1.0
  P5+  P68  1  0.50000000  0.91666667  0.30000000  1.0
  P5+  P69  1  0.50000000  0.91666667  0.70000000  1.0
  P5+  P70  1  0.50000000  0.91666667  0.90000000  1.0
  S2-  S71  1  0.75000000  0.54166667  0.05000000  1.0
  S2-  S72  1  0.75000000  0.54166667  0.25000000  1.0
  S2-  S73  1  0.75000000  0.54166667  0.45000000  1.0
  S2-  S74  1  0.75000000  0.54166667  0.65000000  1.0
  S2-  S75  1  0.75000000  0.54166667  0.85000000  1.0
  S2-  S76  1  0.75000000  0.04166667  0.05000000  1.0
  S2-  S77  1  0.75000000  0.04166667  0.25000000  1.0
  S2-  S78  1  0.75000000  0.04166667  0.45000000  1.0
  S2-  S79  1  0.75000000  0.04166667  0.65000000  1.0
  S2-  S80  1  0.75000000  0.04166667  0.85000000  1.0
  S2-  S81  1  0.85319000  0.35780167  0.12354600  1.0
  S2-  S82  1  0.85319000  0.35780167  0.32354600  1.0
  S2-  S83  1  0.85319000  0.35780167  0.52354600  1.0
  S2-  S84  1  0.85319000  0.35780167  0.72354600  1.0
  S2-  S85  1  0.85319000  0.35780167  0.92354600  1.0
  S2-  S86  1  0.85319000  0.85780167  0.12354600  1.0
  S2-  S87  1  0.85319000  0.85780167  0.32354600  1.0
  S2-  S88  1  0.85319000  0.85780167  0.52354600  1.0
  S2-  S89  1  0.85319000  0.85780167  0.72354600  1.0
  S2-  S90  1  0.85319000  0.85780167  0.92354600  1.0
  S2-  S91  1  0.38227000  0.35780167  0.12354600  1.0
  S2-  S92  1  0.38227000  0.35780167  0.32354600  1.0
  S2-  S93  1  0.38227000  0.35780167  0.52354600  1.0
  S2-  S94  1  0.38227000  0.35780167  0.72354600  1.0
  S2-  S95  1  0.38227000  0.35780167  0.92354600  1.0
  S2-  S96  1  0.38227000  0.85780167  0.12354600  1.0
  S2-  S97  1  0.38227000  0.85780167  0.32354600  1.0
  S2-  S98  1  0.38227000  0.85780167  0.52354600  1.0
  S2-  S99  1  0.38227000  0.85780167  0.72354600  1.0
  S2-  S100  1  0.38227000  0.85780167  0.92354600  1.0
  S2-  S101  1  0.38227000  0.35780167  0.02936200  1.0
  S2-  S102  1  0.38227000  0.35780167  0.22936200  1.0
  S2-  S103  1  0.38227000  0.35780167  0.42936200  1.0
  S2-  S104  1  0.38227000  0.35780167  0.62936200  1.0
  S2-  S105  1  0.38227000  0.35780167  0.82936200  1.0
  S2-  S106  1  0.38227000  0.85780167  0.02936200  1.0
  S2-  S107  1  0.38227000  0.85780167  0.22936200  1.0
  S2-  S108  1  0.38227000  0.85780167  0.42936200  1.0
  S2-  S109  1  0.38227000  0.85780167  0.62936200  1.0
  S2-  S110  1  0.38227000  0.85780167  0.82936200  1.0
  S2-  S111  1  0.38227000  0.59326167  0.12354600  1.0
  S2-  S112  1  0.38227000  0.59326167  0.32354600  1.0
  S2-  S113  1  0.38227000  0.59326167  0.52354600  1.0
  S2-  S114  1  0.38227000  0.59326167  0.72354600  1.0
  S2-  S115  1  0.38227000  0.59326167  0.92354600  1.0
  S2-  S116  1  0.38227000  0.09326167  0.12354600  1.0
  S2-  S117  1  0.38227000  0.09326167  0.32354600  1.0
  S2-  S118  1  0.38227000  0.09326167  0.52354600  1.0
  S2-  S119  1  0.38227000  0.09326167  0.72354600  1.0
  S2-  S120  1  0.38227000  0.09326167  0.92354600  1.0
  I-  I121  1  0.00000000  0.66666667  0.00000000  1.0
  I-  I122  1  0.00000000  0.66666667  0.20000000  1.0
  I-  I123  1  0.00000000  0.66666667  0.40000000  1.0
  I-  I124  1  0.00000000  0.66666667  0.60000000  1.0
  I-  I125  1  0.00000000  0.66666667  0.80000000  1.0
  I-  I126  1  0.00000000  0.16666667  0.00000000  1.0
  I-  I127  1  0.00000000  0.16666667  0.20000000  1.0
  I-  I128  1  0.00000000  0.16666667  0.40000000  1.0
  I-  I129  1  0.00000000  0.16666667  0.60000000  1.0
  I-  I130  1  0.00000000  0.16666667  0.80000000  1.0
