# generated using pymatgen
data_Li2VCl4
_symmetry_space_group_name_H-M   'P 1'
_cell_length_a   14.67232429
_cell_length_b   14.67232429
_cell_length_c   14.67232429
_cell_angle_alpha   60.00000000
_cell_angle_beta   120.00000000
_cell_angle_gamma   120.00000000
_symmetry_Int_Tables_number   1
_chemical_formula_structural   Li2VCl4
_chemical_formula_sum   'Li32 V16 Cl64'
_cell_volume   2233.47838579
_cell_formula_units_Z   16
loop_
 _symmetry_equiv_pos_site_id
 _symmetry_equiv_pos_as_xyz
  1  'x, y, z'
loop_
 _atom_type_symbol
 _atom_type_oxidation_number
  Li+  1.0
  V3+  3.0
  Cl-  -1.0
loop_
 _atom_site_type_symbol
 _atom_site_label
 _atom_site_symmetry_multiplicity
 _atom_site_fract_x
 _atom_site_fract_y
 _atom_site_fract_z
 _atom_site_occupancy
  Li+  Li0  1  0.00098347  0.99936065  0.75459016  1.0
  Li+  Li1  1  0.00360866  0.50203578  0.75223492  1.0
  Li+  Li2  1  0.00000000  0.00000000  0.25000000  1.0
  Li+  Li3  1  0.00000000  0.50000000  0.25000000  1.0
  Li+  Li4  1  0.50000000  0.00000000  0.75000000  1.0
  Li+  Li5  1  0.50000000  0.50000000  0.75000000  1.0
  Li+  Li6  1  0.50000000  0.00000000  0.25000000  1.0
  Li+  Li7  1  0.50000000  0.50000000  0.25000000  1.0
  Li+  Li8  1  0.37500000  0.62500000  0.37500000  1.0
  Li+  Li9  1  0.37414975  0.12710691  0.37540141  1.0
  Li+  Li10  1  0.37500000  0.62500000  0.87500000  1.0
  Li+  Li11  1  0.37436138  0.12085411  0.87565178  1.0
  Li+  Li12  1  0.87500000  0.62500000  0.37500000  1.0
  Li+  Li13  1  0.87322858  0.12687071  0.37328741  1.0
  Li+  Li14  1  0.87500000  0.62500000  0.87500000  1.0
  Li+  Li15  1  0.87500000  0.12500000  0.87500000  1.0
  Li+  Li16  1  0.43780000  0.31260000  0.56260000  1.0
  Li+  Li17  1  0.43780000  0.81260000  0.06260000  1.0
  Li+  Li18  1  0.93780000  0.81260000  0.56260000  1.0
  Li+  Li19  1  0.18740000  0.81260000  0.31220000  1.0
  Li+  Li20  1  0.18740000  0.31260000  0.31220000  1.0
  Li+  Li21  1  0.18740000  0.31260000  0.81220000  1.0
  Li+  Li22  1  0.68293678  0.31235213  0.30926161  1.0
  Li+  Li23  1  0.69052429  0.81208496  0.81391241  1.0
  Li+  Li24  1  0.68740000  0.31260000  0.81220000  1.0
  Li+  Li25  1  0.18462823  0.56000840  0.56433907  1.0
  Li+  Li26  1  0.18740000  0.56220000  0.06260000  1.0
  Li+  Li27  1  0.18740000  0.06220000  0.06260000  1.0
  Li+  Li28  1  0.68740000  0.06220000  0.56260000  1.0
  Li+  Li29  1  0.18580600  0.31914845  0.06294895  1.0
  Li+  Li30  1  0.68499748  0.81451929  0.55884926  1.0
  Li+  Li31  1  0.68740000  0.81260000  0.06260000  1.0
  V3+  V32  1  0.43361840  0.81272292  0.56063060  1.0
  V3+  V33  1  0.43780000  0.31260000  0.06260000  1.0
  V3+  V34  1  0.93780000  0.31260000  0.56260000  1.0
  V3+  V35  1  0.93780000  0.81260000  0.06260000  1.0
  V3+  V36  1  0.93780000  0.31260000  0.06260000  1.0
  V3+  V37  1  0.18740000  0.81260000  0.81220000  1.0
  V3+  V38  1  0.68740000  0.81260000  0.31220000  1.0
  V3+  V39  1  0.18740000  0.06220000  0.56260000  1.0
  V3+  V40  1  0.68740000  0.56220000  0.56260000  1.0
  V3+  V41  1  0.68740000  0.56220000  0.06260000  1.0
  V3+  V42  1  0.68740000  0.06220000  0.06260000  1.0
  V3+  V43  1  0.18740000  0.81260000  0.56260000  1.0
  V3+  V44  1  0.18740000  0.31260000  0.56260000  1.0
  V3+  V45  1  0.18740000  0.81260000  0.06260000  1.0
  V3+  V46  1  0.68740000  0.31260000  0.56260000  1.0
  V3+  V47  1  0.68552738  0.31591670  0.06317443  1.0
  Cl-  Cl48  1  0.29782606  0.93168802  0.68147321  1.0
  Cl-  Cl49  1  0.30005000  0.43335000  0.68335000  1.0
  Cl-  Cl50  1  0.30005000  0.93335000  0.18335000  1.0
  Cl-  Cl51  1  0.30005000  0.43335000  0.18335000  1.0
  Cl-  Cl52  1  0.80005000  0.93335000  0.68335000  1.0
  Cl-  Cl53  1  0.80005000  0.43335000  0.68335000  1.0
  Cl-  Cl54  1  0.80005000  0.93335000  0.18335000  1.0
  Cl-  Cl55  1  0.80005000  0.43335000  0.18335000  1.0
  Cl-  Cl56  1  0.06665000  0.93335000  0.44995000  1.0
  Cl-  Cl57  1  0.06665000  0.43335000  0.44995000  1.0
  Cl-  Cl58  1  0.06665000  0.93335000  0.94995000  1.0
  Cl-  Cl59  1  0.06400018  0.43375824  0.94786401  1.0
  Cl-  Cl60  1  0.56601556  0.93729807  0.44550636  1.0
  Cl-  Cl61  1  0.56795286  0.43263391  0.44709035  1.0
  Cl-  Cl62  1  0.56665000  0.93335000  0.94995000  1.0
  Cl-  Cl63  1  0.56665000  0.43335000  0.94995000  1.0
  Cl-  Cl64  1  0.06665000  0.69995000  0.68335000  1.0
  Cl-  Cl65  1  0.06665000  0.19995000  0.68335000  1.0
  Cl-  Cl66  1  0.06665000  0.69995000  0.18335000  1.0
  Cl-  Cl67  1  0.06665000  0.19995000  0.18335000  1.0
  Cl-  Cl68  1  0.56665000  0.69995000  0.68335000  1.0
  Cl-  Cl69  1  0.56665000  0.19995000  0.68335000  1.0
  Cl-  Cl70  1  0.56665000  0.69995000  0.18335000  1.0
  Cl-  Cl71  1  0.56651219  0.19798589  0.18813479  1.0
  Cl-  Cl72  1  0.06789203  0.93345007  0.68212100  1.0
  Cl-  Cl73  1  0.06665000  0.43335000  0.68335000  1.0
  Cl-  Cl74  1  0.06665000  0.93335000  0.18335000  1.0
  Cl-  Cl75  1  0.06665000  0.43335000  0.18335000  1.0
  Cl-  Cl76  1  0.56665000  0.93335000  0.68335000  1.0
  Cl-  Cl77  1  0.56665000  0.43335000  0.68335000  1.0
  Cl-  Cl78  1  0.56665000  0.93335000  0.18335000  1.0
  Cl-  Cl79  1  0.56665000  0.43335000  0.18335000  1.0
  Cl-  Cl80  1  0.06850000  0.68950000  0.43950000  1.0
  Cl-  Cl81  1  0.06973745  0.19153383  0.43784288  1.0
  Cl-  Cl82  1  0.06850000  0.68950000  0.93950000  1.0
  Cl-  Cl83  1  0.07386513  0.18472245  0.93588828  1.0
  Cl-  Cl84  1  0.57162759  0.69284368  0.43988555  1.0
  Cl-  Cl85  1  0.56546592  0.18618603  0.44205536  1.0
  Cl-  Cl86  1  0.56850000  0.68950000  0.93950000  1.0
  Cl-  Cl87  1  0.56850000  0.18950000  0.93950000  1.0
  Cl-  Cl88  1  0.31050000  0.68950000  0.68150000  1.0
  Cl-  Cl89  1  0.31347575  0.18945983  0.68433779  1.0
  Cl-  Cl90  1  0.31050000  0.68950000  0.18150000  1.0
  Cl-  Cl91  1  0.31038264  0.18948078  0.18297652  1.0
  Cl-  Cl92  1  0.81050000  0.68950000  0.68150000  1.0
  Cl-  Cl93  1  0.81050000  0.18950000  0.68150000  1.0
  Cl-  Cl94  1  0.81061514  0.69145160  0.17699680  1.0
  Cl-  Cl95  1  0.81050000  0.18950000  0.18150000  1.0
  Cl-  Cl96  1  0.31050000  0.93150000  0.43950000  1.0
  Cl-  Cl97  1  0.31050000  0.43150000  0.43950000  1.0
  Cl-  Cl98  1  0.31050000  0.93150000  0.93950000  1.0
  Cl-  Cl99  1  0.31050000  0.43150000  0.93950000  1.0
  Cl-  Cl100  1  0.81290154  0.93950218  0.43981105  1.0
  Cl-  Cl101  1  0.81050000  0.43150000  0.43950000  1.0
  Cl-  Cl102  1  0.81307623  0.92877575  0.93849063  1.0
  Cl-  Cl103  1  0.81050000  0.43150000  0.93950000  1.0
  Cl-  Cl104  1  0.31050000  0.68950000  0.43950000  1.0
  Cl-  Cl105  1  0.31050000  0.18950000  0.43950000  1.0
  Cl-  Cl106  1  0.31050000  0.68950000  0.93950000  1.0
  Cl-  Cl107  1  0.31050000  0.18950000  0.93950000  1.0
  Cl-  Cl108  1  0.81050000  0.68950000  0.43950000  1.0
  Cl-  Cl109  1  0.80771165  0.18607944  0.43808019  1.0
  Cl-  Cl110  1  0.81050000  0.68950000  0.93950000  1.0
  Cl-  Cl111  1  0.81050000  0.18950000  0.93950000  1.0
