# generated using pymatgen
data_Li2VCl4
_symmetry_space_group_name_H-M   'P 1'
_cell_length_a   14.71340047
_cell_length_b   14.71340047
_cell_length_c   14.71340047
_cell_angle_alpha   120.00000000
_cell_angle_beta   120.00000000
_cell_angle_gamma   60.00000000
_symmetry_Int_Tables_number   1
_chemical_formula_structural   Li2VCl4
_chemical_formula_sum   'Li32 V16 Cl64'
_cell_volume   2252.28927864
_cell_formula_units_Z   16
loop_
 _symmetry_equiv_pos_site_id
 _symmetry_equiv_pos_as_xyz
  1  'x, y, z'
loop_
 _atom_type_symbol
 _atom_type_oxidation_number
  Li+  1.0
  V3+  3.0
  Cl-  -1.0
loop_
 _atom_site_type_symbol
 _atom_site_label
 _atom_site_symmetry_multiplicity
 _atom_site_fract_x
 _atom_site_fract_y
 _atom_site_fract_z
 _atom_site_occupancy
  Li+  Li0  1  0.00000000  0.66666667  0.00000000  1.0
  Li+  Li1  1  0.00000000  0.66666667  0.50000000  1.0
  Li+  Li2  1  0.50000000  0.66666667  0.00000000  1.0
  Li+  Li3  1  0.50000000  0.66666667  0.50000000  1.0
  Li+  Li4  1  0.00000000  0.16666667  0.00000000  1.0
  Li+  Li5  1  0.00000000  0.16666667  0.50000000  1.0
  Li+  Li6  1  0.50000000  0.16666667  0.00000000  1.0
  Li+  Li7  1  0.50000000  0.16666667  0.50000000  1.0
  Li+  Li8  1  0.62500000  0.29166667  0.37500000  1.0
  Li+  Li9  1  0.62500000  0.29166667  0.87500000  1.0
  Li+  Li10  1  0.12500000  0.29166667  0.37500000  1.0
  Li+  Li11  1  0.12500000  0.29166667  0.87500000  1.0
  Li+  Li12  1  0.62500000  0.79166667  0.37500000  1.0
  Li+  Li13  1  0.62500000  0.79166667  0.87500000  1.0
  Li+  Li14  1  0.12500000  0.79166667  0.37500000  1.0
  Li+  Li15  1  0.12500000  0.79166667  0.87500000  1.0
  Li+  Li16  1  0.81260000  0.22886667  0.68740000  1.0
  Li+  Li17  1  0.31260000  0.22886667  0.18740000  1.0
  Li+  Li18  1  0.81260000  0.72886667  0.18740000  1.0
  Li+  Li19  1  0.56220000  0.47926667  0.18740000  1.0
  Li+  Li20  1  0.56220000  0.47926667  0.68740000  1.0
  Li+  Li21  1  0.06220000  0.47926667  0.68740000  1.0
  Li+  Li22  1  0.56220000  0.97926667  0.68740000  1.0
  Li+  Li23  1  0.06220000  0.97926667  0.18740000  1.0
  Li+  Li24  1  0.06220000  0.97926667  0.68740000  1.0
  Li+  Li25  1  0.81260000  0.47926667  0.43780000  1.0
  Li+  Li26  1  0.31260000  0.47926667  0.43780000  1.0
  Li+  Li27  1  0.31260000  0.47926667  0.93780000  1.0
  Li+  Li28  1  0.81260000  0.97926667  0.93780000  1.0
  Li+  Li29  1  0.31260000  0.47926667  0.68740000  1.0
  Li+  Li30  1  0.81260000  0.97926667  0.18740000  1.0
  Li+  Li31  1  0.31260000  0.97926667  0.18740000  1.0
  V3+  V32  1  0.81260000  0.22886667  0.18740000  1.0
  V3+  V33  1  0.31260000  0.22886667  0.68740000  1.0
  V3+  V34  1  0.81260000  0.72886667  0.68740000  1.0
  V3+  V35  1  0.31260000  0.72886667  0.18740000  1.0
  V3+  V36  1  0.31260000  0.72886667  0.68740000  1.0
  V3+  V37  1  0.06220000  0.47926667  0.18740000  1.0
  V3+  V38  1  0.56220000  0.97926667  0.18740000  1.0
  V3+  V39  1  0.81260000  0.47926667  0.93780000  1.0
  V3+  V40  1  0.81260000  0.97926667  0.43780000  1.0
  V3+  V41  1  0.31260000  0.97926667  0.43780000  1.0
  V3+  V42  1  0.31260000  0.97926667  0.93780000  1.0
  V3+  V43  1  0.81260000  0.47926667  0.18740000  1.0
  V3+  V44  1  0.81260000  0.47926667  0.68740000  1.0
  V3+  V45  1  0.31260000  0.47926667  0.18740000  1.0
  V3+  V46  1  0.81260000  0.97926667  0.68740000  1.0
  V3+  V47  1  0.31260000  0.97926667  0.68740000  1.0
  Cl-  Cl48  1  0.93335000  0.36661667  0.06665000  1.0
  Cl-  Cl49  1  0.93335000  0.36661667  0.56665000  1.0
  Cl-  Cl50  1  0.43335000  0.36661667  0.06665000  1.0
  Cl-  Cl51  1  0.43335000  0.36661667  0.56665000  1.0
  Cl-  Cl52  1  0.93335000  0.86661667  0.06665000  1.0
  Cl-  Cl53  1  0.93335000  0.86661667  0.56665000  1.0
  Cl-  Cl54  1  0.43335000  0.86661667  0.06665000  1.0
  Cl-  Cl55  1  0.43335000  0.86661667  0.56665000  1.0
  Cl-  Cl56  1  0.69995000  0.60001667  0.06665000  1.0
  Cl-  Cl57  1  0.69995000  0.60001667  0.56665000  1.0
  Cl-  Cl58  1  0.19995000  0.60001667  0.06665000  1.0
  Cl-  Cl59  1  0.19995000  0.60001667  0.56665000  1.0
  Cl-  Cl60  1  0.69995000  0.10001667  0.06665000  1.0
  Cl-  Cl61  1  0.69995000  0.10001667  0.56665000  1.0
  Cl-  Cl62  1  0.19995000  0.10001667  0.06665000  1.0
  Cl-  Cl63  1  0.19995000  0.10001667  0.56665000  1.0
  Cl-  Cl64  1  0.93335000  0.60001667  0.30005000  1.0
  Cl-  Cl65  1  0.93335000  0.60001667  0.80005000  1.0
  Cl-  Cl66  1  0.43335000  0.60001667  0.30005000  1.0
  Cl-  Cl67  1  0.43335000  0.60001667  0.80005000  1.0
  Cl-  Cl68  1  0.93335000  0.10001667  0.30005000  1.0
  Cl-  Cl69  1  0.93335000  0.10001667  0.80005000  1.0
  Cl-  Cl70  1  0.43335000  0.10001667  0.30005000  1.0
  Cl-  Cl71  1  0.43335000  0.10001667  0.80005000  1.0
  Cl-  Cl72  1  0.93335000  0.60001667  0.06665000  1.0
  Cl-  Cl73  1  0.93335000  0.60001667  0.56665000  1.0
  Cl-  Cl74  1  0.43335000  0.60001667  0.06665000  1.0
  Cl-  Cl75  1  0.43335000  0.60001667  0.56665000  1.0
  Cl-  Cl76  1  0.93335000  0.10001667  0.06665000  1.0
  Cl-  Cl77  1  0.93335000  0.10001667  0.56665000  1.0
  Cl-  Cl78  1  0.43335000  0.10001667  0.06665000  1.0
  Cl-  Cl79  1  0.43335000  0.10001667  0.56665000  1.0
  Cl-  Cl80  1  0.68950000  0.59816667  0.31050000  1.0
  Cl-  Cl81  1  0.68950000  0.59816667  0.81050000  1.0
  Cl-  Cl82  1  0.18950000  0.59816667  0.31050000  1.0
  Cl-  Cl83  1  0.18950000  0.59816667  0.81050000  1.0
  Cl-  Cl84  1  0.68950000  0.09816667  0.31050000  1.0
  Cl-  Cl85  1  0.68950000  0.09816667  0.81050000  1.0
  Cl-  Cl86  1  0.18950000  0.09816667  0.31050000  1.0
  Cl-  Cl87  1  0.18950000  0.09816667  0.81050000  1.0
  Cl-  Cl88  1  0.93150000  0.35616667  0.31050000  1.0
  Cl-  Cl89  1  0.93150000  0.35616667  0.81050000  1.0
  Cl-  Cl90  1  0.43150000  0.35616667  0.31050000  1.0
  Cl-  Cl91  1  0.43150000  0.35616667  0.81050000  1.0
  Cl-  Cl92  1  0.93150000  0.85616667  0.31050000  1.0
  Cl-  Cl93  1  0.93150000  0.85616667  0.81050000  1.0
  Cl-  Cl94  1  0.43150000  0.85616667  0.31050000  1.0
  Cl-  Cl95  1  0.43150000  0.85616667  0.81050000  1.0
  Cl-  Cl96  1  0.68950000  0.35616667  0.06850000  1.0
  Cl-  Cl97  1  0.68950000  0.35616667  0.56850000  1.0
  Cl-  Cl98  1  0.18950000  0.35616667  0.06850000  1.0
  Cl-  Cl99  1  0.18950000  0.35616667  0.56850000  1.0
  Cl-  Cl100  1  0.68950000  0.85616667  0.06850000  1.0
  Cl-  Cl101  1  0.68950000  0.85616667  0.56850000  1.0
  Cl-  Cl102  1  0.18950000  0.85616667  0.06850000  1.0
  Cl-  Cl103  1  0.18950000  0.85616667  0.56850000  1.0
  Cl-  Cl104  1  0.68950000  0.35616667  0.31050000  1.0
  Cl-  Cl105  1  0.68950000  0.35616667  0.81050000  1.0
  Cl-  Cl106  1  0.18950000  0.35616667  0.31050000  1.0
  Cl-  Cl107  1  0.18950000  0.35616667  0.81050000  1.0
  Cl-  Cl108  1  0.68950000  0.85616667  0.31050000  1.0
  Cl-  Cl109  1  0.68950000  0.85616667  0.81050000  1.0
  Cl-  Cl110  1  0.18950000  0.85616667  0.31050000  1.0
  Cl-  Cl111  1  0.18950000  0.85616667  0.81050000  1.0
