# generated using pymatgen
data_Li22La12YNb7O48
_symmetry_space_group_name_H-M   'P 1'
_cell_length_a   11.13552785
_cell_length_b   11.13552785
_cell_length_c   22.27105570
_cell_angle_alpha   109.47122063
_cell_angle_beta   70.52877937
_cell_angle_gamma   70.52877937
_symmetry_Int_Tables_number   1
_chemical_formula_structural   Li22La12YNb7O48
_chemical_formula_sum   'Li44 La24 Y2 Nb14 O96'
_cell_volume   2125.88873326
_cell_formula_units_Z   2
loop_
 _symmetry_equiv_pos_site_id
 _symmetry_equiv_pos_as_xyz
  1  'x, y, z'
loop_
 _atom_type_symbol
 _atom_type_oxidation_number
  Li+  1.0
  La3+  3.0
  Y3+  3.0
  Nb5+  5.0
  O2-  -2.0
loop_
 _atom_site_type_symbol
 _atom_site_label
 _atom_site_symmetry_multiplicity
 _atom_site_fract_x
 _atom_site_fract_y
 _atom_site_fract_z
 _atom_site_occupancy
  Li+  Li0  1  0.05760000  0.19240000  0.44240000  1.0
  Li+  Li1  1  0.05760000  0.19240000  0.94240000  1.0
  Li+  Li2  1  0.69240000  0.55760000  0.30760000  1.0
  Li+  Li3  1  0.69240000  0.55760000  0.80760000  1.0
  Li+  Li4  1  0.30400343  0.44253766  0.69704257  1.0
  Li+  Li5  1  0.30760000  0.44240000  0.19240000  1.0
  Li+  Li6  1  0.39550000  0.27670000  0.25660000  1.0
  Li+  Li7  1  0.39426690  0.27653383  0.75998540  1.0
  Li+  Li8  1  0.73650000  0.77670000  0.33610000  1.0
  Li+  Li9  1  0.74263901  0.77638354  0.83434187  1.0
  Li+  Li10  1  0.76447127  0.40463127  0.50729812  1.0
  Li+  Li11  1  0.76350000  0.40870000  0.00660000  1.0
  Li+  Li12  1  0.22330000  0.67220000  0.63175000  1.0
  Li+  Li13  1  0.22330000  0.67220000  0.13175000  1.0
  Li+  Li14  1  0.91092082  0.82458071  0.54758215  1.0
  Li+  Li15  1  0.91152245  0.82382063  0.05306322  1.0
  Li+  Li16  1  0.17220000  0.10450000  0.54565000  1.0
  Li+  Li17  1  0.17220000  0.10450000  0.04565000  1.0
  Li+  Li18  1  0.51320000  0.09130000  0.63175000  1.0
  Li+  Li19  1  0.51404474  0.09497766  0.13056707  1.0
  Li+  Li20  1  0.90870000  0.26350000  0.74340000  1.0
  Li+  Li21  1  0.90870000  0.26350000  0.24340000  1.0
  Li+  Li22  1  0.09130000  0.73650000  0.25660000  1.0
  Li+  Li23  1  0.09322592  0.73973216  0.75546274  1.0
  Li+  Li24  1  0.87500000  0.87500000  0.37500000  1.0
  Li+  Li25  1  0.87500000  0.87500000  0.87500000  1.0
  Li+  Li26  1  0.62500000  0.62500000  0.62500000  1.0
  Li+  Li27  1  0.62500000  0.62500000  0.12500000  1.0
  Li+  Li28  1  0.12422544  0.75407041  0.56325393  1.0
  Li+  Li29  1  0.12500000  0.75000000  0.06250000  1.0
  Li+  Li30  1  0.37500000  0.25000000  0.68750000  1.0
  Li+  Li31  1  0.37236086  0.24995950  0.18643999  1.0
  Li+  Li32  1  0.75000000  0.37500000  0.31250000  1.0
  Li+  Li33  1  0.75000000  0.37500000  0.81250000  1.0
  Li+  Li34  1  0.25000000  0.12500000  0.43750000  1.0
  Li+  Li35  1  0.25000000  0.12500000  0.93750000  1.0
  Li+  Li36  1  0.37500000  0.37500000  0.37500000  1.0
  Li+  Li37  1  0.37500000  0.37500000  0.87500000  1.0
  Li+  Li38  1  0.87205693  0.24805038  0.44027945  1.0
  Li+  Li39  1  0.87500000  0.25000000  0.93750000  1.0
  Li+  Li40  1  0.62395677  0.74816664  0.31755951  1.0
  Li+  Li41  1  0.62500000  0.75000000  0.81250000  1.0
  Li+  Li42  1  0.75000000  0.87500000  0.56250000  1.0
  Li+  Li43  1  0.75000000  0.87500000  0.06250000  1.0
  La3+  La44  1  0.75000000  0.62500000  0.43750000  1.0
  La3+  La45  1  0.75000000  0.62500000  0.93750000  1.0
  La3+  La46  1  0.25000000  0.87500000  0.31250000  1.0
  La3+  La47  1  0.24770039  0.87372043  0.81236670  1.0
  La3+  La48  1  0.12500000  0.62500000  0.37500000  1.0
  La3+  La49  1  0.12276046  0.62266362  0.87824476  1.0
  La3+  La50  1  0.37500000  0.87500000  0.62500000  1.0
  La3+  La51  1  0.37500000  0.87500000  0.12500000  1.0
  La3+  La52  1  0.37643786  0.75109307  0.43953587  1.0
  La3+  La53  1  0.37500000  0.75000000  0.93750000  1.0
  La3+  La54  1  0.12500000  0.25000000  0.31250000  1.0
  La3+  La55  1  0.12500000  0.25000000  0.81250000  1.0
  La3+  La56  1  0.25124371  0.37478733  0.56219699  1.0
  La3+  La57  1  0.25000000  0.37500000  0.06250000  1.0
  La3+  La58  1  0.75000000  0.12500000  0.68750000  1.0
  La3+  La59  1  0.75000000  0.12500000  0.18750000  1.0
  La3+  La60  1  0.87500000  0.37500000  0.62500000  1.0
  La3+  La61  1  0.87500000  0.37500000  0.12500000  1.0
  La3+  La62  1  0.62500000  0.12500000  0.37500000  1.0
  La3+  La63  1  0.62307684  0.12037520  0.87451766  1.0
  La3+  La64  1  0.62500000  0.25000000  0.56250000  1.0
  La3+  La65  1  0.62500000  0.25000000  0.06250000  1.0
  La3+  La66  1  0.87448679  0.75107062  0.68708638  1.0
  La3+  La67  1  0.87500000  0.75000000  0.18750000  1.0
  Y3+  Y68  1  0.50000000  0.50000000  0.75000000  1.0
  Y3+  Y69  1  0.50000000  0.50000000  0.25000000  1.0
  Nb5+  Nb70  1  0.00163064  0.50123961  0.74999551  1.0
  Nb5+  Nb71  1  0.00000000  0.50000000  0.25000000  1.0
  Nb5+  Nb72  1  0.50000000  0.50000000  0.50000000  1.0
  Nb5+  Nb73  1  0.50165591  0.50080625  0.00183608  1.0
  Nb5+  Nb74  1  0.00000000  0.00000000  0.50000000  1.0
  Nb5+  Nb75  1  0.00095079  0.99804182  0.99817603  1.0
  Nb5+  Nb76  1  0.50000000  0.00000000  0.75000000  1.0
  Nb5+  Nb77  1  0.49946184  0.99868871  0.24586758  1.0
  Nb5+  Nb78  1  0.00000000  0.50000000  0.50000000  1.0
  Nb5+  Nb79  1  0.00000000  0.50000000  0.00000000  1.0
  Nb5+  Nb80  1  0.50000000  0.00000000  0.50000000  1.0
  Nb5+  Nb81  1  0.50000000  0.00000000  0.00000000  1.0
  Nb5+  Nb82  1  0.00000000  0.00000000  0.75000000  1.0
  Nb5+  Nb83  1  0.00000000  0.00000000  0.25000000  1.0
  O2-  O84  1  0.90630000  0.68130000  0.49110000  1.0
  O2-  O85  1  0.90220325  0.68010911  0.98936561  1.0
  O2-  O86  1  0.59370000  0.88850000  0.54380000  1.0
  O2-  O87  1  0.59370000  0.88850000  0.04380000  1.0
  O2-  O88  1  0.30090000  0.61150000  0.25890000  1.0
  O2-  O89  1  0.30090000  0.61150000  0.75890000  1.0
  O2-  O90  1  0.19910000  0.81870000  0.70620000  1.0
  O2-  O91  1  0.19692892  0.81824359  0.20745225  1.0
  O2-  O92  1  0.38850000  0.51780000  0.34955000  1.0
  O2-  O93  1  0.38850000  0.51780000  0.84955000  1.0
  O2-  O94  1  0.18130000  0.41240000  0.40045000  1.0
  O2-  O95  1  0.17605794  0.41064047  0.89969755  1.0
  O2-  O96  1  0.31870000  0.98220000  0.54685000  1.0
  O2-  O97  1  0.31870000  0.98220000  0.04685000  1.0
  O2-  O98  1  0.11150000  0.08760000  0.70315000  1.0
  O2-  O99  1  0.11150000  0.08760000  0.20315000  1.0
  O2-  O100  1  0.58760000  0.80090000  0.40935000  1.0
  O2-  O101  1  0.58760000  0.80090000  0.90935000  1.0
  O2-  O102  1  0.48220000  0.69910000  0.30575000  1.0
  O2-  O103  1  0.48407278  0.69882403  0.79983913  1.0
  O2-  O104  1  0.91240000  0.40630000  0.44425000  1.0
  O2-  O105  1  0.91240000  0.40630000  0.94425000  1.0
  O2-  O106  1  0.01780000  0.09370000  0.34065000  1.0
  O2-  O107  1  0.01780000  0.09370000  0.84065000  1.0
  O2-  O108  1  0.09370000  0.31870000  0.50890000  1.0
  O2-  O109  1  0.09370000  0.31870000  0.00890000  1.0
  O2-  O110  1  0.40630000  0.11150000  0.45620000  1.0
  O2-  O111  1  0.40630000  0.11150000  0.95620000  1.0
  O2-  O112  1  0.69910000  0.38850000  0.74110000  1.0
  O2-  O113  1  0.69910000  0.38850000  0.24110000  1.0
  O2-  O114  1  0.80090000  0.18130000  0.29380000  1.0
  O2-  O115  1  0.80090000  0.18130000  0.79380000  1.0
  O2-  O116  1  0.61150000  0.48220000  0.65045000  1.0
  O2-  O117  1  0.61150000  0.48220000  0.15045000  1.0
  O2-  O118  1  0.81870000  0.58760000  0.59955000  1.0
  O2-  O119  1  0.81870000  0.58760000  0.09955000  1.0
  O2-  O120  1  0.68130000  0.01780000  0.45315000  1.0
  O2-  O121  1  0.68130000  0.01780000  0.95315000  1.0
  O2-  O122  1  0.88850000  0.91240000  0.29685000  1.0
  O2-  O123  1  0.88558766  0.91208406  0.79626765  1.0
  O2-  O124  1  0.41240000  0.19910000  0.59065000  1.0
  O2-  O125  1  0.41738417  0.19787870  0.09126149  1.0
  O2-  O126  1  0.51791084  0.30396326  0.69394101  1.0
  O2-  O127  1  0.51233475  0.30056702  0.19521881  1.0
  O2-  O128  1  0.08760000  0.59370000  0.55575000  1.0
  O2-  O129  1  0.08760000  0.59370000  0.05575000  1.0
  O2-  O130  1  0.98220000  0.90630000  0.65935000  1.0
  O2-  O131  1  0.98333091  0.90748126  0.15865405  1.0
  O2-  O132  1  0.08760000  0.31870000  0.65045000  1.0
  O2-  O133  1  0.08760000  0.31870000  0.15045000  1.0
  O2-  O134  1  0.98220000  0.11150000  0.59955000  1.0
  O2-  O135  1  0.98242620  0.11611039  0.10227875  1.0
  O2-  O136  1  0.41240000  0.38850000  0.45315000  1.0
  O2-  O137  1  0.41240000  0.38850000  0.95315000  1.0
  O2-  O138  1  0.51780000  0.18130000  0.29685000  1.0
  O2-  O139  1  0.51553699  0.17897922  0.79832502  1.0
  O2-  O140  1  0.40593382  0.48356688  0.59132155  1.0
  O2-  O141  1  0.40630000  0.48220000  0.09065000  1.0
  O2-  O142  1  0.09370000  0.58760000  0.69425000  1.0
  O2-  O143  1  0.08863460  0.58829856  0.19366257  1.0
  O2-  O144  1  0.80090000  0.01780000  0.55575000  1.0
  O2-  O145  1  0.80466448  0.01561892  0.05182153  1.0
  O2-  O146  1  0.69910000  0.91240000  0.65935000  1.0
  O2-  O147  1  0.69910000  0.91240000  0.15935000  1.0
  O2-  O148  1  0.88707700  0.19701338  0.50998827  1.0
  O2-  O149  1  0.88736716  0.19964543  0.00624595  1.0
  O2-  O150  1  0.68202713  0.29896193  0.45572224  1.0
  O2-  O151  1  0.68130000  0.30090000  0.95620000  1.0
  O2-  O152  1  0.81870000  0.59370000  0.74110000  1.0
  O2-  O153  1  0.81870000  0.59370000  0.24110000  1.0
  O2-  O154  1  0.61150000  0.90630000  0.29380000  1.0
  O2-  O155  1  0.61150000  0.90630000  0.79380000  1.0
  O2-  O156  1  0.91240000  0.68130000  0.34955000  1.0
  O2-  O157  1  0.91385582  0.67979731  0.84460454  1.0
  O2-  O158  1  0.01385623  0.88885294  0.40078711  1.0
  O2-  O159  1  0.02247374  0.88685811  0.89816052  1.0
  O2-  O160  1  0.58760000  0.61150000  0.54685000  1.0
  O2-  O161  1  0.58760000  0.61150000  0.04685000  1.0
  O2-  O162  1  0.48220000  0.81870000  0.70315000  1.0
  O2-  O163  1  0.48220000  0.81870000  0.20315000  1.0
  O2-  O164  1  0.59370000  0.51780000  0.40935000  1.0
  O2-  O165  1  0.59370000  0.51780000  0.90935000  1.0
  O2-  O166  1  0.90040455  0.40953419  0.30597574  1.0
  O2-  O167  1  0.91029518  0.41057135  0.80844925  1.0
  O2-  O168  1  0.19910000  0.98220000  0.44425000  1.0
  O2-  O169  1  0.19910000  0.98220000  0.94425000  1.0
  O2-  O170  1  0.30090000  0.08760000  0.34065000  1.0
  O2-  O171  1  0.29852106  0.08541619  0.84049509  1.0
  O2-  O172  1  0.11150000  0.80090000  0.49110000  1.0
  O2-  O173  1  0.11150000  0.80090000  0.99110000  1.0
  O2-  O174  1  0.31870000  0.69910000  0.54380000  1.0
  O2-  O175  1  0.31870000  0.69910000  0.04380000  1.0
  O2-  O176  1  0.18130000  0.40630000  0.25890000  1.0
  O2-  O177  1  0.18130000  0.40630000  0.75890000  1.0
  O2-  O178  1  0.38850000  0.09370000  0.70620000  1.0
  O2-  O179  1  0.38850000  0.09370000  0.20620000  1.0
