# generated using pymatgen
data_Li22La12YNb7O48
_symmetry_space_group_name_H-M   'P 1'
_cell_length_a   22.20418638
_cell_length_b   11.10209319
_cell_length_c   11.10209319
_cell_angle_alpha   70.52877937
_cell_angle_beta   70.52877937
_cell_angle_gamma   109.47122063
_symmetry_Int_Tables_number   1
_chemical_formula_structural   Li22La12YNb7O48
_chemical_formula_sum   'Li44 La24 Y2 Nb14 O96'
_cell_volume   2106.79709237
_cell_formula_units_Z   2
loop_
 _symmetry_equiv_pos_site_id
 _symmetry_equiv_pos_as_xyz
  1  'x, y, z'
loop_
 _atom_type_symbol
 _atom_type_oxidation_number
  Li+  1.0
  La3+  3.0
  Y3+  3.0
  Nb5+  5.0
  O2-  -2.0
loop_
 _atom_site_type_symbol
 _atom_site_label
 _atom_site_symmetry_multiplicity
 _atom_site_fract_x
 _atom_site_fract_y
 _atom_site_fract_z
 _atom_site_occupancy
  Li+  Li0  1  0.69240000  0.60906667  0.80760000  1.0
  Li+  Li1  1  0.19240000  0.60906667  0.80760000  1.0
  Li+  Li2  1  0.55760000  0.97426667  0.44240000  1.0
  Li+  Li3  1  0.05760000  0.97426667  0.44240000  1.0
  Li+  Li4  1  0.94240000  0.35906667  0.55760000  1.0
  Li+  Li5  1  0.44240000  0.35906667  0.55760000  1.0
  Li+  Li6  1  0.50660000  0.27116667  0.72330000  1.0
  Li+  Li7  1  0.00660000  0.27116667  0.72330000  1.0
  Li+  Li8  1  0.58610000  0.93016667  0.22330000  1.0
  Li+  Li9  1  0.08610000  0.93016667  0.22330000  1.0
  Li+  Li10  1  0.75660000  0.90316667  0.59130000  1.0
  Li+  Li11  1  0.25660000  0.90316667  0.59130000  1.0
  Li+  Li12  1  0.88175000  0.44336667  0.32780000  1.0
  Li+  Li13  1  0.38175000  0.44336667  0.32780000  1.0
  Li+  Li14  1  0.80225000  0.75796667  0.17220000  1.0
  Li+  Li15  1  0.30225000  0.75796667  0.17220000  1.0
  Li+  Li16  1  0.79565000  0.49446667  0.89550000  1.0
  Li+  Li17  1  0.29565000  0.49446667  0.89550000  1.0
  Li+  Li18  1  0.88175000  0.15346667  0.90870000  1.0
  Li+  Li19  1  0.38175000  0.15346667  0.90870000  1.0
  Li+  Li20  1  0.99340000  0.75796667  0.73650000  1.0
  Li+  Li21  1  0.49340000  0.75796667  0.73650000  1.0
  Li+  Li22  1  0.50660000  0.57536667  0.26350000  1.0
  Li+  Li23  1  0.00660000  0.57536667  0.26350000  1.0
  Li+  Li24  1  0.62500000  0.79166667  0.12500000  1.0
  Li+  Li25  1  0.12500000  0.79166667  0.12500000  1.0
  Li+  Li26  1  0.87500000  0.04166667  0.37500000  1.0
  Li+  Li27  1  0.37500000  0.04166667  0.37500000  1.0
  Li+  Li28  1  0.81250000  0.54166667  0.25000000  1.0
  Li+  Li29  1  0.31250000  0.54166667  0.25000000  1.0
  Li+  Li30  1  0.93750000  0.29166667  0.75000000  1.0
  Li+  Li31  1  0.43750000  0.29166667  0.75000000  1.0
  Li+  Li32  1  0.56250000  0.91666667  0.62500000  1.0
  Li+  Li33  1  0.06250000  0.91666667  0.62500000  1.0
  Li+  Li34  1  0.68750000  0.41666667  0.87500000  1.0
  Li+  Li35  1  0.18750000  0.41666667  0.87500000  1.0
  Li+  Li36  1  0.62500000  0.29166667  0.62500000  1.0
  Li+  Li37  1  0.12500000  0.29166667  0.62500000  1.0
  Li+  Li38  1  0.68750000  0.79166667  0.75000000  1.0
  Li+  Li39  1  0.18750000  0.79166667  0.75000000  1.0
  Li+  Li40  1  0.56250000  0.04166667  0.25000000  1.0
  Li+  Li41  1  0.06250000  0.04166667  0.25000000  1.0
  Li+  Li42  1  0.81250000  0.91666667  0.12500000  1.0
  Li+  Li43  1  0.31250000  0.91666667  0.12500000  1.0
  La3+  La44  1  0.68750000  0.91666667  0.37500000  1.0
  La3+  La45  1  0.18750000  0.91666667  0.37500000  1.0
  La3+  La46  1  0.56250000  0.41666667  0.12500000  1.0
  La3+  La47  1  0.06250000  0.41666667  0.12500000  1.0
  La3+  La48  1  0.62500000  0.54166667  0.37500000  1.0
  La3+  La49  1  0.12500000  0.54166667  0.37500000  1.0
  La3+  La50  1  0.87500000  0.29166667  0.12500000  1.0
  La3+  La51  1  0.37500000  0.29166667  0.12500000  1.0
  La3+  La52  1  0.68750000  0.29166667  0.25000000  1.0
  La3+  La53  1  0.18750000  0.29166667  0.25000000  1.0
  La3+  La54  1  0.56250000  0.54166667  0.75000000  1.0
  La3+  La55  1  0.06250000  0.54166667  0.75000000  1.0
  La3+  La56  1  0.81250000  0.41666667  0.62500000  1.0
  La3+  La57  1  0.31250000  0.41666667  0.62500000  1.0
  La3+  La58  1  0.93750000  0.91666667  0.87500000  1.0
  La3+  La59  1  0.43750000  0.91666667  0.87500000  1.0
  La3+  La60  1  0.87500000  0.79166667  0.62500000  1.0
  La3+  La61  1  0.37500000  0.79166667  0.62500000  1.0
  La3+  La62  1  0.62500000  0.04166667  0.87500000  1.0
  La3+  La63  1  0.12500000  0.04166667  0.87500000  1.0
  La3+  La64  1  0.81250000  0.04166667  0.75000000  1.0
  La3+  La65  1  0.31250000  0.04166667  0.75000000  1.0
  La3+  La66  1  0.93750000  0.79166667  0.25000000  1.0
  La3+  La67  1  0.43750000  0.79166667  0.25000000  1.0
  Y3+  Y68  1  0.00000000  0.16666667  0.50000000  1.0
  Y3+  Y69  1  0.50000000  0.16666667  0.50000000  1.0
  Nb5+  Nb70  1  0.00000000  0.66666667  0.50000000  1.0
  Nb5+  Nb71  1  0.50000000  0.66666667  0.50000000  1.0
  Nb5+  Nb72  1  0.75000000  0.16666667  0.50000000  1.0
  Nb5+  Nb73  1  0.25000000  0.16666667  0.50000000  1.0
  Nb5+  Nb74  1  0.75000000  0.66666667  0.00000000  1.0
  Nb5+  Nb75  1  0.25000000  0.66666667  0.00000000  1.0
  Nb5+  Nb76  1  0.00000000  0.16666667  0.00000000  1.0
  Nb5+  Nb77  1  0.50000000  0.16666667  0.00000000  1.0
  Nb5+  Nb78  1  0.75000000  0.66666667  0.50000000  1.0
  Nb5+  Nb79  1  0.25000000  0.66666667  0.50000000  1.0
  Nb5+  Nb80  1  0.75000000  0.16666667  0.00000000  1.0
  Nb5+  Nb81  1  0.25000000  0.16666667  0.00000000  1.0
  Nb5+  Nb82  1  0.00000000  0.66666667  0.00000000  1.0
  Nb5+  Nb83  1  0.50000000  0.66666667  0.00000000  1.0
  O2-  O84  1  0.74110000  0.76036667  0.31870000  1.0
  O2-  O85  1  0.24110000  0.76036667  0.31870000  1.0
  O2-  O86  1  0.79380000  0.07296667  0.11150000  1.0
  O2-  O87  1  0.29380000  0.07296667  0.11150000  1.0
  O2-  O88  1  0.50890000  0.36576667  0.38850000  1.0
  O2-  O89  1  0.00890000  0.36576667  0.38850000  1.0
  O2-  O90  1  0.95620000  0.46756667  0.18130000  1.0
  O2-  O91  1  0.45620000  0.46756667  0.18130000  1.0
  O2-  O92  1  0.59955000  0.27816667  0.48220000  1.0
  O2-  O93  1  0.09955000  0.27816667  0.48220000  1.0
  O2-  O94  1  0.65045000  0.48536667  0.58760000  1.0
  O2-  O95  1  0.15045000  0.48536667  0.58760000  1.0
  O2-  O96  1  0.79685000  0.34796667  0.01780000  1.0
  O2-  O97  1  0.29685000  0.34796667  0.01780000  1.0
  O2-  O98  1  0.95315000  0.55516667  0.91240000  1.0
  O2-  O99  1  0.45315000  0.55516667  0.91240000  1.0
  O2-  O100  1  0.65935000  0.07906667  0.19910000  1.0
  O2-  O101  1  0.15935000  0.07906667  0.19910000  1.0
  O2-  O102  1  0.55575000  0.18446667  0.30090000  1.0
  O2-  O103  1  0.05575000  0.18446667  0.30090000  1.0
  O2-  O104  1  0.69425000  0.75426667  0.59370000  1.0
  O2-  O105  1  0.19425000  0.75426667  0.59370000  1.0
  O2-  O106  1  0.59065000  0.64886667  0.90630000  1.0
  O2-  O107  1  0.09065000  0.64886667  0.90630000  1.0
  O2-  O108  1  0.75890000  0.57296667  0.68130000  1.0
  O2-  O109  1  0.25890000  0.57296667  0.68130000  1.0
  O2-  O110  1  0.70620000  0.26036667  0.88850000  1.0
  O2-  O111  1  0.20620000  0.26036667  0.88850000  1.0
  O2-  O112  1  0.99110000  0.96756667  0.61150000  1.0
  O2-  O113  1  0.49110000  0.96756667  0.61150000  1.0
  O2-  O114  1  0.54380000  0.86576667  0.81870000  1.0
  O2-  O115  1  0.04380000  0.86576667  0.81870000  1.0
  O2-  O116  1  0.90045000  0.05516667  0.51780000  1.0
  O2-  O117  1  0.40045000  0.05516667  0.51780000  1.0
  O2-  O118  1  0.84955000  0.84796667  0.41240000  1.0
  O2-  O119  1  0.34955000  0.84796667  0.41240000  1.0
  O2-  O120  1  0.70315000  0.98536667  0.98220000  1.0
  O2-  O121  1  0.20315000  0.98536667  0.98220000  1.0
  O2-  O122  1  0.54685000  0.77816667  0.08760000  1.0
  O2-  O123  1  0.04685000  0.77816667  0.08760000  1.0
  O2-  O124  1  0.84065000  0.25426667  0.80090000  1.0
  O2-  O125  1  0.34065000  0.25426667  0.80090000  1.0
  O2-  O126  1  0.94425000  0.14886667  0.69910000  1.0
  O2-  O127  1  0.44425000  0.14886667  0.69910000  1.0
  O2-  O128  1  0.80575000  0.57906667  0.40630000  1.0
  O2-  O129  1  0.30575000  0.57906667  0.40630000  1.0
  O2-  O130  1  0.90935000  0.68446667  0.09370000  1.0
  O2-  O131  1  0.40935000  0.68446667  0.09370000  1.0
  O2-  O132  1  0.90045000  0.57906667  0.68130000  1.0
  O2-  O133  1  0.40045000  0.57906667  0.68130000  1.0
  O2-  O134  1  0.84955000  0.68446667  0.88850000  1.0
  O2-  O135  1  0.34955000  0.68446667  0.88850000  1.0
  O2-  O136  1  0.70315000  0.25426667  0.61150000  1.0
  O2-  O137  1  0.20315000  0.25426667  0.61150000  1.0
  O2-  O138  1  0.54685000  0.14886667  0.81870000  1.0
  O2-  O139  1  0.04685000  0.14886667  0.81870000  1.0
  O2-  O140  1  0.84065000  0.26036667  0.51780000  1.0
  O2-  O141  1  0.34065000  0.26036667  0.51780000  1.0
  O2-  O142  1  0.94425000  0.57296667  0.41240000  1.0
  O2-  O143  1  0.44425000  0.57296667  0.41240000  1.0
  O2-  O144  1  0.80575000  0.86576667  0.98220000  1.0
  O2-  O145  1  0.30575000  0.86576667  0.98220000  1.0
  O2-  O146  1  0.90935000  0.96756667  0.08760000  1.0
  O2-  O147  1  0.40935000  0.96756667  0.08760000  1.0
  O2-  O148  1  0.75890000  0.77816667  0.80090000  1.0
  O2-  O149  1  0.25890000  0.77816667  0.80090000  1.0
  O2-  O150  1  0.70620000  0.98536667  0.69910000  1.0
  O2-  O151  1  0.20620000  0.98536667  0.69910000  1.0
  O2-  O152  1  0.99110000  0.84796667  0.40630000  1.0
  O2-  O153  1  0.49110000  0.84796667  0.40630000  1.0
  O2-  O154  1  0.54380000  0.05516667  0.09370000  1.0
  O2-  O155  1  0.04380000  0.05516667  0.09370000  1.0
  O2-  O156  1  0.59955000  0.75426667  0.31870000  1.0
  O2-  O157  1  0.09955000  0.75426667  0.31870000  1.0
  O2-  O158  1  0.65045000  0.64886667  0.11150000  1.0
  O2-  O159  1  0.15045000  0.64886667  0.11150000  1.0
  O2-  O160  1  0.79685000  0.07906667  0.38850000  1.0
  O2-  O161  1  0.29685000  0.07906667  0.38850000  1.0
  O2-  O162  1  0.95315000  0.18446667  0.18130000  1.0
  O2-  O163  1  0.45315000  0.18446667  0.18130000  1.0
  O2-  O164  1  0.65935000  0.07296667  0.48220000  1.0
  O2-  O165  1  0.15935000  0.07296667  0.48220000  1.0
  O2-  O166  1  0.55575000  0.76036667  0.58760000  1.0
  O2-  O167  1  0.05575000  0.76036667  0.58760000  1.0
  O2-  O168  1  0.69425000  0.46756667  0.01780000  1.0
  O2-  O169  1  0.19425000  0.46756667  0.01780000  1.0
  O2-  O170  1  0.59065000  0.36576667  0.91240000  1.0
  O2-  O171  1  0.09065000  0.36576667  0.91240000  1.0
  O2-  O172  1  0.74110000  0.55516667  0.19910000  1.0
  O2-  O173  1  0.24110000  0.55516667  0.19910000  1.0
  O2-  O174  1  0.79380000  0.34796667  0.30090000  1.0
  O2-  O175  1  0.29380000  0.34796667  0.30090000  1.0
  O2-  O176  1  0.50890000  0.48536667  0.59370000  1.0
  O2-  O177  1  0.00890000  0.48536667  0.59370000  1.0
  O2-  O178  1  0.95620000  0.27816667  0.90630000  1.0
  O2-  O179  1  0.45620000  0.27816667  0.90630000  1.0
