# generated using pymatgen
data_Li22La12YNb7O48
_symmetry_space_group_name_H-M   'P 1'
_cell_length_a   11.13552785
_cell_length_b   22.27105570
_cell_length_c   11.13552785
_cell_angle_alpha   109.47122063
_cell_angle_beta   109.47122063
_cell_angle_gamma   109.47122063
_symmetry_Int_Tables_number   1
_chemical_formula_structural   Li22La12YNb7O48
_chemical_formula_sum   'Li44 La24 Y2 Nb14 O96'
_cell_volume   2125.88873326
_cell_formula_units_Z   2
loop_
 _symmetry_equiv_pos_site_id
 _symmetry_equiv_pos_as_xyz
  1  'x, y, z'
loop_
 _atom_type_symbol
 _atom_type_oxidation_number
  Li+  1.0
  La3+  3.0
  Y3+  3.0
  Nb5+  5.0
  O2-  -2.0
loop_
 _atom_site_type_symbol
 _atom_site_label
 _atom_site_symmetry_multiplicity
 _atom_site_fract_x
 _atom_site_fract_y
 _atom_site_fract_z
 _atom_site_occupancy
  Li+  Li0  1  0.05760000  0.30760000  0.80760000  1.0
  Li+  Li0  1  0.05760000  0.80760000  0.80760000  1.0
  Li+  Li1  1  0.69240000  0.44240000  0.44240000  1.0
  Li+  Li1  1  0.69240000  0.94240000  0.44240000  1.0
  Li+  Li2  1  0.30760000  0.05760000  0.55760000  1.0
  Li+  Li2  1  0.30760000  0.55760000  0.55760000  1.0
  Li+  Li3  1  0.39550000  0.49340000  0.72330000  1.0
  Li+  Li3  1  0.39550000  0.99340000  0.72330000  1.0
  Li+  Li4  1  0.73650000  0.41390000  0.22330000  1.0
  Li+  Li4  1  0.73650000  0.91390000  0.22330000  1.0
  Li+  Li5  1  0.76350000  0.24340000  0.59130000  1.0
  Li+  Li5  1  0.76350000  0.74340000  0.59130000  1.0
  Li+  Li6  1  0.22330000  0.11825000  0.32780000  1.0
  Li+  Li6  1  0.22330000  0.61825000  0.32780000  1.0
  Li+  Li7  1  0.90870000  0.19775000  0.17220000  1.0
  Li+  Li7  1  0.90870000  0.69775000  0.17220000  1.0
  Li+  Li8  1  0.17220000  0.20435000  0.89550000  1.0
  Li+  Li8  1  0.17220000  0.70435000  0.89550000  1.0
  Li+  Li9  1  0.51320000  0.11825000  0.90870000  1.0
  Li+  Li9  1  0.51320000  0.61825000  0.90870000  1.0
  Li+  Li10  1  0.90870000  0.00660000  0.73650000  1.0
  Li+  Li10  1  0.90870000  0.50660000  0.73650000  1.0
  Li+  Li11  1  0.09130000  0.49340000  0.26350000  1.0
  Li+  Li11  1  0.09130000  0.99340000  0.26350000  1.0
  Li+  Li12  1  0.87500000  0.37500000  0.12500000  1.0
  Li+  Li12  1  0.87500000  0.87500000  0.12500000  1.0
  Li+  Li13  1  0.62500000  0.12500000  0.37500000  1.0
  Li+  Li13  1  0.62500000  0.62500000  0.37500000  1.0
  Li+  Li14  1  0.12500000  0.18750000  0.25000000  1.0
  Li+  Li14  1  0.12500000  0.68750000  0.25000000  1.0
  Li+  Li15  1  0.37500000  0.06250000  0.75000000  1.0
  Li+  Li15  1  0.37500000  0.56250000  0.75000000  1.0
  Li+  Li16  1  0.75000000  0.43750000  0.62500000  1.0
  Li+  Li16  1  0.75000000  0.93750000  0.62500000  1.0
  Li+  Li17  1  0.25000000  0.31250000  0.87500000  1.0
  Li+  Li17  1  0.25000000  0.81250000  0.87500000  1.0
  Li+  Li18  1  0.37500000  0.37500000  0.62500000  1.0
  Li+  Li18  1  0.37500000  0.87500000  0.62500000  1.0
  Li+  Li19  1  0.87500000  0.31250000  0.75000000  1.0
  Li+  Li19  1  0.87500000  0.81250000  0.75000000  1.0
  Li+  Li20  1  0.62500000  0.43750000  0.25000000  1.0
  Li+  Li20  1  0.62500000  0.93750000  0.25000000  1.0
  Li+  Li21  1  0.75000000  0.18750000  0.12500000  1.0
  Li+  Li21  1  0.75000000  0.68750000  0.12500000  1.0
  La3+  La1  1  0.75000000  0.31250000  0.37500000  1.0
  La3+  La1  1  0.75000000  0.81250000  0.37500000  1.0
  La3+  La1  1  0.25000000  0.43750000  0.12500000  1.0
  La3+  La1  1  0.25000000  0.93750000  0.12500000  1.0
  La3+  La1  1  0.12500000  0.37500000  0.37500000  1.0
  La3+  La1  1  0.12500000  0.87500000  0.37500000  1.0
  La3+  La1  1  0.37500000  0.12500000  0.12500000  1.0
  La3+  La1  1  0.37500000  0.62500000  0.12500000  1.0
  La3+  La1  1  0.37500000  0.31250000  0.25000000  1.0
  La3+  La1  1  0.37500000  0.81250000  0.25000000  1.0
  La3+  La1  1  0.12500000  0.43750000  0.75000000  1.0
  La3+  La1  1  0.12500000  0.93750000  0.75000000  1.0
  La3+  La1  1  0.25000000  0.18750000  0.62500000  1.0
  La3+  La1  1  0.25000000  0.68750000  0.62500000  1.0
  La3+  La1  1  0.75000000  0.06250000  0.87500000  1.0
  La3+  La1  1  0.75000000  0.56250000  0.87500000  1.0
  La3+  La1  1  0.87500000  0.12500000  0.62500000  1.0
  La3+  La1  1  0.87500000  0.62500000  0.62500000  1.0
  La3+  La1  1  0.62500000  0.37500000  0.87500000  1.0
  La3+  La1  1  0.62500000  0.87500000  0.87500000  1.0
  La3+  La1  1  0.62500000  0.18750000  0.75000000  1.0
  La3+  La1  1  0.62500000  0.68750000  0.75000000  1.0
  La3+  La1  1  0.87500000  0.06250000  0.25000000  1.0
  La3+  La1  1  0.87500000  0.56250000  0.25000000  1.0
  Y3+  Y34  1  0.50000000  0.00000000  0.50000000  1.0
  Y3+  Y34  1  0.50000000  0.50000000  0.50000000  1.0
  Nb5+  Nb35  1  0.00000000  0.00000000  0.50000000  1.0
  Nb5+  Nb35  1  0.00000000  0.50000000  0.50000000  1.0
  Nb5+  Nb36  1  0.50000000  0.25000000  0.50000000  1.0
  Nb5+  Nb36  1  0.50000000  0.75000000  0.50000000  1.0
  Nb5+  Nb37  1  0.00000000  0.25000000  0.00000000  1.0
  Nb5+  Nb37  1  0.00000000  0.75000000  0.00000000  1.0
  Nb5+  Nb38  1  0.50000000  0.00000000  0.00000000  1.0
  Nb5+  Nb38  1  0.50000000  0.50000000  0.00000000  1.0
  Nb5+  Nb39  1  0.00000000  0.25000000  0.50000000  1.0
  Nb5+  Nb39  1  0.00000000  0.75000000  0.50000000  1.0
  Nb5+  Nb40  1  0.50000000  0.25000000  0.00000000  1.0
  Nb5+  Nb40  1  0.50000000  0.75000000  0.00000000  1.0
  Nb5+  Nb41  1  0.00000000  0.00000000  0.00000000  1.0
  Nb5+  Nb41  1  0.00000000  0.50000000  0.00000000  1.0
  O2-  O1  1  0.90630000  0.25890000  0.31870000  1.0
  O2-  O1  1  0.90630000  0.75890000  0.31870000  1.0
  O2-  O1  1  0.59370000  0.20620000  0.11150000  1.0
  O2-  O1  1  0.59370000  0.70620000  0.11150000  1.0
  O2-  O1  1  0.30090000  0.49110000  0.38850000  1.0
  O2-  O1  1  0.30090000  0.99110000  0.38850000  1.0
  O2-  O1  1  0.19910000  0.04380000  0.18130000  1.0
  O2-  O1  1  0.19910000  0.54380000  0.18130000  1.0
  O2-  O1  1  0.38850000  0.40045000  0.48220000  1.0
  O2-  O1  1  0.38850000  0.90045000  0.48220000  1.0
  O2-  O1  1  0.18130000  0.34955000  0.58760000  1.0
  O2-  O1  1  0.18130000  0.84955000  0.58760000  1.0
  O2-  O1  1  0.31870000  0.20315000  0.01780000  1.0
  O2-  O1  1  0.31870000  0.70315000  0.01780000  1.0
  O2-  O1  1  0.11150000  0.04685000  0.91240000  1.0
  O2-  O1  1  0.11150000  0.54685000  0.91240000  1.0
  O2-  O1  1  0.58760000  0.34065000  0.19910000  1.0
  O2-  O1  1  0.58760000  0.84065000  0.19910000  1.0
  O2-  O1  1  0.48220000  0.44425000  0.30090000  1.0
  O2-  O1  1  0.48220000  0.94425000  0.30090000  1.0
  O2-  O1  1  0.91240000  0.30575000  0.59370000  1.0
  O2-  O1  1  0.91240000  0.80575000  0.59370000  1.0
  O2-  O1  1  0.01780000  0.40935000  0.90630000  1.0
  O2-  O1  1  0.01780000  0.90935000  0.90630000  1.0
  O2-  O1  1  0.09370000  0.24110000  0.68130000  1.0
  O2-  O1  1  0.09370000  0.74110000  0.68130000  1.0
  O2-  O1  1  0.40630000  0.29380000  0.88850000  1.0
  O2-  O1  1  0.40630000  0.79380000  0.88850000  1.0
  O2-  O1  1  0.69910000  0.00890000  0.61150000  1.0
  O2-  O1  1  0.69910000  0.50890000  0.61150000  1.0
  O2-  O1  1  0.80090000  0.45620000  0.81870000  1.0
  O2-  O1  1  0.80090000  0.95620000  0.81870000  1.0
  O2-  O1  1  0.61150000  0.09955000  0.51780000  1.0
  O2-  O1  1  0.61150000  0.59955000  0.51780000  1.0
  O2-  O1  1  0.81870000  0.15045000  0.41240000  1.0
  O2-  O1  1  0.81870000  0.65045000  0.41240000  1.0
  O2-  O1  1  0.68130000  0.29685000  0.98220000  1.0
  O2-  O1  1  0.68130000  0.79685000  0.98220000  1.0
  O2-  O1  1  0.88850000  0.45315000  0.08760000  1.0
  O2-  O1  1  0.88850000  0.95315000  0.08760000  1.0
  O2-  O1  1  0.41240000  0.15935000  0.80090000  1.0
  O2-  O1  1  0.41240000  0.65935000  0.80090000  1.0
  O2-  O1  1  0.51780000  0.05575000  0.69910000  1.0
  O2-  O1  1  0.51780000  0.55575000  0.69910000  1.0
  O2-  O1  1  0.08760000  0.19425000  0.40630000  1.0
  O2-  O1  1  0.08760000  0.69425000  0.40630000  1.0
  O2-  O1  1  0.98220000  0.09065000  0.09370000  1.0
  O2-  O1  1  0.98220000  0.59065000  0.09370000  1.0
  O2-  O1  1  0.08760000  0.09955000  0.68130000  1.0
  O2-  O1  1  0.08760000  0.59955000  0.68130000  1.0
  O2-  O1  1  0.98220000  0.15045000  0.88850000  1.0
  O2-  O1  1  0.98220000  0.65045000  0.88850000  1.0
  O2-  O1  1  0.41240000  0.29685000  0.61150000  1.0
  O2-  O1  1  0.41240000  0.79685000  0.61150000  1.0
  O2-  O1  1  0.51780000  0.45315000  0.81870000  1.0
  O2-  O1  1  0.51780000  0.95315000  0.81870000  1.0
  O2-  O1  1  0.40630000  0.15935000  0.51780000  1.0
  O2-  O1  1  0.40630000  0.65935000  0.51780000  1.0
  O2-  O1  1  0.09370000  0.05575000  0.41240000  1.0
  O2-  O1  1  0.09370000  0.55575000  0.41240000  1.0
  O2-  O1  1  0.80090000  0.19425000  0.98220000  1.0
  O2-  O1  1  0.80090000  0.69425000  0.98220000  1.0
  O2-  O1  1  0.69910000  0.09065000  0.08760000  1.0
  O2-  O1  1  0.69910000  0.59065000  0.08760000  1.0
  O2-  O1  1  0.88850000  0.24110000  0.80090000  1.0
  O2-  O1  1  0.88850000  0.74110000  0.80090000  1.0
  O2-  O1  1  0.68130000  0.29380000  0.69910000  1.0
  O2-  O1  1  0.68130000  0.79380000  0.69910000  1.0
  O2-  O1  1  0.81870000  0.00890000  0.40630000  1.0
  O2-  O1  1  0.81870000  0.50890000  0.40630000  1.0
  O2-  O1  1  0.61150000  0.45620000  0.09370000  1.0
  O2-  O1  1  0.61150000  0.95620000  0.09370000  1.0
  O2-  O1  1  0.91240000  0.40045000  0.31870000  1.0
  O2-  O1  1  0.91240000  0.90045000  0.31870000  1.0
  O2-  O1  1  0.01780000  0.34955000  0.11150000  1.0
  O2-  O1  1  0.01780000  0.84955000  0.11150000  1.0
  O2-  O1  1  0.58760000  0.20315000  0.38850000  1.0
  O2-  O1  1  0.58760000  0.70315000  0.38850000  1.0
  O2-  O1  1  0.48220000  0.04685000  0.18130000  1.0
  O2-  O1  1  0.48220000  0.54685000  0.18130000  1.0
  O2-  O1  1  0.59370000  0.34065000  0.48220000  1.0
  O2-  O1  1  0.59370000  0.84065000  0.48220000  1.0
  O2-  O1  1  0.90630000  0.44425000  0.58760000  1.0
  O2-  O1  1  0.90630000  0.94425000  0.58760000  1.0
  O2-  O1  1  0.19910000  0.30575000  0.01780000  1.0
  O2-  O1  1  0.19910000  0.80575000  0.01780000  1.0
  O2-  O1  1  0.30090000  0.40935000  0.91240000  1.0
  O2-  O1  1  0.30090000  0.90935000  0.91240000  1.0
  O2-  O1  1  0.11150000  0.25890000  0.19910000  1.0
  O2-  O1  1  0.11150000  0.75890000  0.19910000  1.0
  O2-  O1  1  0.31870000  0.20620000  0.30090000  1.0
  O2-  O1  1  0.31870000  0.70620000  0.30090000  1.0
  O2-  O1  1  0.18130000  0.49110000  0.59370000  1.0
  O2-  O1  1  0.18130000  0.99110000  0.59370000  1.0
  O2-  O1  1  0.38850000  0.04380000  0.90630000  1.0
  O2-  O1  1  0.38850000  0.54380000  0.90630000  1.0
