# generated using pymatgen
data_Li2ZnGeO4
_symmetry_space_group_name_H-M   'P 1'
_cell_length_a   10.08000000
_cell_length_b   19.20000000
_cell_length_c   10.90000000
_cell_angle_alpha   90.00000000
_cell_angle_beta   90.00000000
_cell_angle_gamma   89.80000000
_symmetry_Int_Tables_number   1
_chemical_formula_structural   Li2ZnGeO4
_chemical_formula_sum   'Li48 Zn24 Ge24 O96'
_cell_volume   2109.52954795
_cell_formula_units_Z   24
loop_
 _symmetry_equiv_pos_site_id
 _symmetry_equiv_pos_as_xyz
  1  'x, y, z'
loop_
 _atom_type_symbol
 _atom_type_oxidation_number
  Li+  1.0
  Zn2+  2.0
  Ge4+  4.0
  O2-  -2.0
loop_
 _atom_site_type_symbol
 _atom_site_label
 _atom_site_symmetry_multiplicity
 _atom_site_fract_x
 _atom_site_fract_y
 _atom_site_fract_z
 _atom_site_occupancy
  Li+  Li0  1  0.25000000  0.00000000  0.68350000  1.0
  Li+  Li1  1  0.25000000  0.66666667  0.68350000  1.0
  Li+  Li2  1  0.24850499  0.33085380  0.68450771  1.0
  Li+  Li3  1  0.25000000  0.00000000  0.18350000  1.0
  Li+  Li4  1  0.25115980  0.66666667  0.18426489  1.0
  Li+  Li5  1  0.25000000  0.33333333  0.18350000  1.0
  Li+  Li6  1  0.75000000  0.00000000  0.68350000  1.0
  Li+  Li7  1  0.75000000  0.66666667  0.68350000  1.0
  Li+  Li8  1  0.75000000  0.33333333  0.68350000  1.0
  Li+  Li9  1  0.74914184  0.99894549  0.18096011  1.0
  Li+  Li10  1  0.75000000  0.66666667  0.18350000  1.0
  Li+  Li11  1  0.75000000  0.33333333  0.18350000  1.0
  Li+  Li12  1  0.50000000  0.83333333  0.31650000  1.0
  Li+  Li13  1  0.50153678  0.49912375  0.31571698  1.0
  Li+  Li14  1  0.50000000  0.16666667  0.31650000  1.0
  Li+  Li15  1  0.50023436  0.83165997  0.81546229  1.0
  Li+  Li16  1  0.49848822  0.50205826  0.81505602  1.0
  Li+  Li17  1  0.50000000  0.16666667  0.81650000  1.0
  Li+  Li18  1  0.00000000  0.83333333  0.31650000  1.0
  Li+  Li19  1  0.00000000  0.50000000  0.31650000  1.0
  Li+  Li20  1  0.00470921  0.16419558  0.31633328  1.0
  Li+  Li21  1  0.00000000  0.83333333  0.81650000  1.0
  Li+  Li22  1  0.00016170  0.49821168  0.81401419  1.0
  Li+  Li23  1  0.00000000  0.16666667  0.81650000  1.0
  Li+  Li24  1  0.50000000  0.75000000  0.59150000  1.0
  Li+  Li25  1  0.50000000  0.41666667  0.59150000  1.0
  Li+  Li26  1  0.50000000  0.08333333  0.59150000  1.0
  Li+  Li27  1  0.50000000  0.75000000  0.09150000  1.0
  Li+  Li28  1  0.50000000  0.41666667  0.09150000  1.0
  Li+  Li29  1  0.49933174  0.08988593  0.08931840  1.0
  Li+  Li30  1  0.00000000  0.75000000  0.59150000  1.0
  Li+  Li31  1  0.99852557  0.41834096  0.59547191  1.0
  Li+  Li32  1  0.00000000  0.08333333  0.59150000  1.0
  Li+  Li33  1  0.00000000  0.75000000  0.09150000  1.0
  Li+  Li34  1  0.00157127  0.41881390  0.09214208  1.0
  Li+  Li35  1  0.99631500  0.08100351  0.09865461  1.0
  Li+  Li36  1  0.25000000  0.91666667  0.40850000  1.0
  Li+  Li37  1  0.25000000  0.58333333  0.40850000  1.0
  Li+  Li38  1  0.25112902  0.24822110  0.40739775  1.0
  Li+  Li39  1  0.25000000  0.91666667  0.90850000  1.0
  Li+  Li40  1  0.25000000  0.58333333  0.90850000  1.0
  Li+  Li41  1  0.25000000  0.25000000  0.90850000  1.0
  Li+  Li42  1  0.75000000  0.91666667  0.40850000  1.0
  Li+  Li43  1  0.74895658  0.58081040  0.40693945  1.0
  Li+  Li44  1  0.75000000  0.25000000  0.40850000  1.0
  Li+  Li45  1  0.75000000  0.91666667  0.90850000  1.0
  Li+  Li46  1  0.75000000  0.58333333  0.90850000  1.0
  Li+  Li47  1  0.75000000  0.25000000  0.90850000  1.0
  Zn2+  Zn48  1  0.00200000  0.91766667  0.58000000  1.0
  Zn2+  Zn49  1  0.00200000  0.58433333  0.58000000  1.0
  Zn2+  Zn50  1  0.00200000  0.25100000  0.58000000  1.0
  Zn2+  Zn51  1  0.00200000  0.91766667  0.08000000  1.0
  Zn2+  Zn52  1  0.00200000  0.58433333  0.08000000  1.0
  Zn2+  Zn53  1  0.00200000  0.25100000  0.08000000  1.0
  Zn2+  Zn54  1  0.50200000  0.91766667  0.58000000  1.0
  Zn2+  Zn55  1  0.50167681  0.58545475  0.57625043  1.0
  Zn2+  Zn56  1  0.50150797  0.25100493  0.58189966  1.0
  Zn2+  Zn57  1  0.50200000  0.91766667  0.08000000  1.0
  Zn2+  Zn58  1  0.50200000  0.58433333  0.08000000  1.0
  Zn2+  Zn59  1  0.50200000  0.25100000  0.08000000  1.0
  Zn2+  Zn60  1  0.25200000  0.75100000  0.42000000  1.0
  Zn2+  Zn61  1  0.25114390  0.41611391  0.42338200  1.0
  Zn2+  Zn62  1  0.25200000  0.08433333  0.42000000  1.0
  Zn2+  Zn63  1  0.25200000  0.75100000  0.92000000  1.0
  Zn2+  Zn64  1  0.25510300  0.42039503  0.91871610  1.0
  Zn2+  Zn65  1  0.25200000  0.08433333  0.92000000  1.0
  Zn2+  Zn66  1  0.75200000  0.75100000  0.42000000  1.0
  Zn2+  Zn67  1  0.75119511  0.41522126  0.41801384  1.0
  Zn2+  Zn68  1  0.75200000  0.08433333  0.42000000  1.0
  Zn2+  Zn69  1  0.75200000  0.75100000  0.92000000  1.0
  Zn2+  Zn70  1  0.75233351  0.42030770  0.91709893  1.0
  Zn2+  Zn71  1  0.75200000  0.08433333  0.92000000  1.0
  Ge4+  Ge72  1  0.24700597  0.83191278  0.66335855  1.0
  Ge4+  Ge73  1  0.25000000  0.50000000  0.66200000  1.0
  Ge4+  Ge74  1  0.25000000  0.16666667  0.66200000  1.0
  Ge4+  Ge75  1  0.25000000  0.83333333  0.16200000  1.0
  Ge4+  Ge76  1  0.25251975  0.50479620  0.16076142  1.0
  Ge4+  Ge77  1  0.25000000  0.16666667  0.16200000  1.0
  Ge4+  Ge78  1  0.75000000  0.83333333  0.66200000  1.0
  Ge4+  Ge79  1  0.75000000  0.50000000  0.66200000  1.0
  Ge4+  Ge80  1  0.75000000  0.16666667  0.66200000  1.0
  Ge4+  Ge81  1  0.75000000  0.83333333  0.16200000  1.0
  Ge4+  Ge82  1  0.75000000  0.50000000  0.16200000  1.0
  Ge4+  Ge83  1  0.74975207  0.16766165  0.16403365  1.0
  Ge4+  Ge84  1  0.00275053  0.00596581  0.33706878  1.0
  Ge4+  Ge85  1  0.00000000  0.66666667  0.33800000  1.0
  Ge4+  Ge86  1  0.00000000  0.33333333  0.33800000  1.0
  Ge4+  Ge87  1  0.00000000  0.00000000  0.83800000  1.0
  Ge4+  Ge88  1  0.99712652  0.66588666  0.83861825  1.0
  Ge4+  Ge89  1  0.00000000  0.33333333  0.83800000  1.0
  Ge4+  Ge90  1  0.49327061  0.00065729  0.33533622  1.0
  Ge4+  Ge91  1  0.50000000  0.66666667  0.33800000  1.0
  Ge4+  Ge92  1  0.50130858  0.33843343  0.33788116  1.0
  Ge4+  Ge93  1  0.50000000  0.00000000  0.83800000  1.0
  Ge4+  Ge94  1  0.50000000  0.66666667  0.83800000  1.0
  Ge4+  Ge95  1  0.50000000  0.33333333  0.83800000  1.0
  O2-  O96  1  0.03950000  0.99866667  0.68300000  1.0
  O2-  O97  1  0.03950000  0.66533333  0.68300000  1.0
  O2-  O98  1  0.03950000  0.33200000  0.68300000  1.0
  O2-  O99  1  0.03950000  0.99866667  0.18300000  1.0
  O2-  O100  1  0.03500234  0.66673944  0.18438319  1.0
  O2-  O101  1  0.03950000  0.33200000  0.18300000  1.0
  O2-  O102  1  0.53950000  0.99866667  0.68300000  1.0
  O2-  O103  1  0.54037180  0.66925890  0.68355007  1.0
  O2-  O104  1  0.53950000  0.33200000  0.68300000  1.0
  O2-  O105  1  0.53950000  0.99866667  0.18300000  1.0
  O2-  O106  1  0.53950000  0.66533333  0.18300000  1.0
  O2-  O107  1  0.53680726  0.33264717  0.18351701  1.0
  O2-  O108  1  0.28844699  0.83165091  0.32002507  1.0
  O2-  O109  1  0.28950000  0.49866667  0.31700000  1.0
  O2-  O110  1  0.28950000  0.16533333  0.31700000  1.0
  O2-  O111  1  0.28907935  0.83420787  0.81685055  1.0
  O2-  O112  1  0.28950000  0.49866667  0.81700000  1.0
  O2-  O113  1  0.28950000  0.16533333  0.81700000  1.0
  O2-  O114  1  0.78950000  0.83200000  0.31700000  1.0
  O2-  O115  1  0.78950000  0.49866667  0.31700000  1.0
  O2-  O116  1  0.78950000  0.16533333  0.31700000  1.0
  O2-  O117  1  0.78950000  0.83200000  0.81700000  1.0
  O2-  O118  1  0.78950000  0.49866667  0.81700000  1.0
  O2-  O119  1  0.78950000  0.16533333  0.81700000  1.0
  O2-  O120  1  0.05900000  0.92266667  0.41400000  1.0
  O2-  O121  1  0.05900000  0.58933333  0.41400000  1.0
  O2-  O122  1  0.05900000  0.25600000  0.41400000  1.0
  O2-  O123  1  0.05900000  0.92266667  0.91400000  1.0
  O2-  O124  1  0.05900000  0.58933333  0.91400000  1.0
  O2-  O125  1  0.06058709  0.25990909  0.91262594  1.0
  O2-  O126  1  0.55900000  0.92266667  0.41400000  1.0
  O2-  O127  1  0.56101734  0.58763754  0.41449821  1.0
  O2-  O128  1  0.55900000  0.25600000  0.41400000  1.0
  O2-  O129  1  0.55900000  0.92266667  0.91400000  1.0
  O2-  O130  1  0.55711561  0.59544970  0.91425564  1.0
  O2-  O131  1  0.55900000  0.25600000  0.91400000  1.0
  O2-  O132  1  0.30900000  0.75600000  0.58600000  1.0
  O2-  O133  1  0.30900000  0.42266667  0.58600000  1.0
  O2-  O134  1  0.31222584  0.08652665  0.57871980  1.0
  O2-  O135  1  0.30900000  0.75600000  0.08600000  1.0
  O2-  O136  1  0.30900000  0.42266667  0.08600000  1.0
  O2-  O137  1  0.30900000  0.08933333  0.08600000  1.0
  O2-  O138  1  0.80900000  0.75600000  0.58600000  1.0
  O2-  O139  1  0.81321627  0.42540111  0.58984747  1.0
  O2-  O140  1  0.80900000  0.08933333  0.58600000  1.0
  O2-  O141  1  0.80900000  0.75600000  0.08600000  1.0
  O2-  O142  1  0.81232327  0.42218016  0.08713278  1.0
  O2-  O143  1  0.80900000  0.08933333  0.08600000  1.0
  O2-  O144  1  0.07600000  0.83233333  0.65650000  1.0
  O2-  O145  1  0.07600000  0.49900000  0.65650000  1.0
  O2-  O146  1  0.07600000  0.16566667  0.65650000  1.0
  O2-  O147  1  0.07600000  0.83233333  0.15650000  1.0
  O2-  O148  1  0.07600000  0.49900000  0.15650000  1.0
  O2-  O149  1  0.07600000  0.16566667  0.15650000  1.0
  O2-  O150  1  0.57600000  0.83233333  0.65650000  1.0
  O2-  O151  1  0.57600000  0.49900000  0.65650000  1.0
  O2-  O152  1  0.57600000  0.16566667  0.65650000  1.0
  O2-  O153  1  0.57600000  0.83233333  0.15650000  1.0
  O2-  O154  1  0.58057794  0.49790623  0.15579939  1.0
  O2-  O155  1  0.57600000  0.16566667  0.15650000  1.0
  O2-  O156  1  0.33089378  0.99647737  0.34125894  1.0
  O2-  O157  1  0.32600000  0.66566667  0.34350000  1.0
  O2-  O158  1  0.32600000  0.33233333  0.34350000  1.0
  O2-  O159  1  0.32600000  0.99900000  0.84350000  1.0
  O2-  O160  1  0.32600000  0.66566667  0.84350000  1.0
  O2-  O161  1  0.32600000  0.33233333  0.84350000  1.0
  O2-  O162  1  0.82600000  0.99900000  0.34350000  1.0
  O2-  O163  1  0.82852124  0.66621327  0.34657373  1.0
  O2-  O164  1  0.82600000  0.33233333  0.34350000  1.0
  O2-  O165  1  0.82600000  0.99900000  0.84350000  1.0
  O2-  O166  1  0.82600000  0.66566667  0.84350000  1.0
  O2-  O167  1  0.82600000  0.33233333  0.84350000  1.0
  O2-  O168  1  0.31000000  0.91166667  0.59250000  1.0
  O2-  O169  1  0.31000000  0.57833333  0.59250000  1.0
  O2-  O170  1  0.31000000  0.24500000  0.59250000  1.0
  O2-  O171  1  0.31000000  0.91166667  0.09250000  1.0
  O2-  O172  1  0.31000000  0.57833333  0.09250000  1.0
  O2-  O173  1  0.31292525  0.24382252  0.09500058  1.0
  O2-  O174  1  0.81000000  0.91166667  0.59250000  1.0
  O2-  O175  1  0.81000000  0.57833333  0.59250000  1.0
  O2-  O176  1  0.80732797  0.24453335  0.59502677  1.0
  O2-  O177  1  0.81068148  0.91378394  0.09412122  1.0
  O2-  O178  1  0.81000000  0.57833333  0.09250000  1.0
  O2-  O179  1  0.80920834  0.24550681  0.09203778  1.0
  O2-  O180  1  0.06000000  0.74500000  0.40750000  1.0
  O2-  O181  1  0.06000000  0.41166667  0.40750000  1.0
  O2-  O182  1  0.06000000  0.07833333  0.40750000  1.0
  O2-  O183  1  0.06000000  0.74500000  0.90750000  1.0
  O2-  O184  1  0.06000000  0.41166667  0.90750000  1.0
  O2-  O185  1  0.06000000  0.07833333  0.90750000  1.0
  O2-  O186  1  0.56000000  0.74500000  0.40750000  1.0
  O2-  O187  1  0.55830649  0.40991651  0.40661164  1.0
  O2-  O188  1  0.56000000  0.07833333  0.40750000  1.0
  O2-  O189  1  0.56021891  0.74385438  0.90821467  1.0
  O2-  O190  1  0.56426827  0.41049368  0.90762610  1.0
  O2-  O191  1  0.56000000  0.07833333  0.90750000  1.0
