# generated using pymatgen
data_Li2ZnGeO4
_symmetry_space_group_name_H-M   'P 1'
_cell_length_a   10.87593603
_cell_length_b   10.05774635
_cell_length_c   19.15761209
_cell_angle_alpha   89.80000000
_cell_angle_beta   90.00000000
_cell_angle_gamma   90.00000000
_symmetry_Int_Tables_number   1
_chemical_formula_structural   Li2ZnGeO4
_chemical_formula_sum   'Li48 Zn24 Ge24 O96'
_cell_volume   2095.58872281
_cell_formula_units_Z   24
loop_
 _symmetry_equiv_pos_site_id
 _symmetry_equiv_pos_as_xyz
  1  'x, y, z'
loop_
 _atom_type_symbol
 _atom_type_oxidation_number
  Li+  1.0
  Zn2+  2.0
  Ge4+  4.0
  O2-  -2.0
loop_
 _atom_site_type_symbol
 _atom_site_label
 _atom_site_symmetry_multiplicity
 _atom_site_fract_x
 _atom_site_fract_y
 _atom_site_fract_z
 _atom_site_occupancy
  Li+  Li0  1  0.93350000  0.41666667  0.00000000  1.0
  Li+  Li1  1  0.93350000  0.41666667  0.33333333  1.0
  Li+  Li2  1  0.93350000  0.41666667  0.66666667  1.0
  Li+  Li3  1  0.43350000  0.41666667  0.00000000  1.0
  Li+  Li4  1  0.43350000  0.41666667  0.33333333  1.0
  Li+  Li5  1  0.43350000  0.41666667  0.66666667  1.0
  Li+  Li6  1  0.93350000  0.91666667  0.00000000  1.0
  Li+  Li7  1  0.93350000  0.91666667  0.33333333  1.0
  Li+  Li8  1  0.93350000  0.91666667  0.66666667  1.0
  Li+  Li9  1  0.43350000  0.91666667  0.00000000  1.0
  Li+  Li10  1  0.43350000  0.91666667  0.33333333  1.0
  Li+  Li11  1  0.43350000  0.91666667  0.66666667  1.0
  Li+  Li12  1  0.56650000  0.16666667  0.16666667  1.0
  Li+  Li13  1  0.56650000  0.16666667  0.50000000  1.0
  Li+  Li14  1  0.56650000  0.16666667  0.83333333  1.0
  Li+  Li15  1  0.06650000  0.16666667  0.16666667  1.0
  Li+  Li16  1  0.06650000  0.16666667  0.50000000  1.0
  Li+  Li17  1  0.06650000  0.16666667  0.83333333  1.0
  Li+  Li18  1  0.56650000  0.66666667  0.16666667  1.0
  Li+  Li19  1  0.56650000  0.66666667  0.50000000  1.0
  Li+  Li20  1  0.56650000  0.66666667  0.83333333  1.0
  Li+  Li21  1  0.06650000  0.66666667  0.16666667  1.0
  Li+  Li22  1  0.06650000  0.66666667  0.50000000  1.0
  Li+  Li23  1  0.06650000  0.66666667  0.83333333  1.0
  Li+  Li24  1  0.84150000  0.16666667  0.25000000  1.0
  Li+  Li25  1  0.84150000  0.16666667  0.58333333  1.0
  Li+  Li26  1  0.84150000  0.16666667  0.91666667  1.0
  Li+  Li27  1  0.34150000  0.16666667  0.25000000  1.0
  Li+  Li28  1  0.34150000  0.16666667  0.58333333  1.0
  Li+  Li29  1  0.34150000  0.16666667  0.91666667  1.0
  Li+  Li30  1  0.84150000  0.66666667  0.25000000  1.0
  Li+  Li31  1  0.84150000  0.66666667  0.58333333  1.0
  Li+  Li32  1  0.84150000  0.66666667  0.91666667  1.0
  Li+  Li33  1  0.34150000  0.66666667  0.25000000  1.0
  Li+  Li34  1  0.34150000  0.66666667  0.58333333  1.0
  Li+  Li35  1  0.34150000  0.66666667  0.91666667  1.0
  Li+  Li36  1  0.65850000  0.41666667  0.08333333  1.0
  Li+  Li37  1  0.65850000  0.41666667  0.41666667  1.0
  Li+  Li38  1  0.65850000  0.41666667  0.75000000  1.0
  Li+  Li39  1  0.15850000  0.41666667  0.08333333  1.0
  Li+  Li40  1  0.15850000  0.41666667  0.41666667  1.0
  Li+  Li41  1  0.15850000  0.41666667  0.75000000  1.0
  Li+  Li42  1  0.65850000  0.91666667  0.08333333  1.0
  Li+  Li43  1  0.65850000  0.91666667  0.41666667  1.0
  Li+  Li44  1  0.65850000  0.91666667  0.75000000  1.0
  Li+  Li45  1  0.15850000  0.91666667  0.08333333  1.0
  Li+  Li46  1  0.15850000  0.91666667  0.41666667  1.0
  Li+  Li47  1  0.15850000  0.91666667  0.75000000  1.0
  Zn2+  Zn48  1  0.83000000  0.66466667  0.08233333  1.0
  Zn2+  Zn49  1  0.83000000  0.66466667  0.41566667  1.0
  Zn2+  Zn50  1  0.83000000  0.66466667  0.74900000  1.0
  Zn2+  Zn51  1  0.33000000  0.66466667  0.08233333  1.0
  Zn2+  Zn52  1  0.33000000  0.66466667  0.41566667  1.0
  Zn2+  Zn53  1  0.33000000  0.66466667  0.74900000  1.0
  Zn2+  Zn54  1  0.83000000  0.16466667  0.08233333  1.0
  Zn2+  Zn55  1  0.83000000  0.16466667  0.41566667  1.0
  Zn2+  Zn56  1  0.83000000  0.16466667  0.74900000  1.0
  Zn2+  Zn57  1  0.33000000  0.16466667  0.08233333  1.0
  Zn2+  Zn58  1  0.33000000  0.16466667  0.41566667  1.0
  Zn2+  Zn59  1  0.33000000  0.16466667  0.74900000  1.0
  Zn2+  Zn60  1  0.67000000  0.41466667  0.24900000  1.0
  Zn2+  Zn61  1  0.67000000  0.41466667  0.58233333  1.0
  Zn2+  Zn62  1  0.67000000  0.41466667  0.91566667  1.0
  Zn2+  Zn63  1  0.17000000  0.41466667  0.24900000  1.0
  Zn2+  Zn64  1  0.17000000  0.41466667  0.58233333  1.0
  Zn2+  Zn65  1  0.17000000  0.41466667  0.91566667  1.0
  Zn2+  Zn66  1  0.67000000  0.91466667  0.24900000  1.0
  Zn2+  Zn67  1  0.67000000  0.91466667  0.58233333  1.0
  Zn2+  Zn68  1  0.67000000  0.91466667  0.91566667  1.0
  Zn2+  Zn69  1  0.17000000  0.91466667  0.24900000  1.0
  Zn2+  Zn70  1  0.17000000  0.91466667  0.58233333  1.0
  Zn2+  Zn71  1  0.17000000  0.91466667  0.91566667  1.0
  Ge4+  Ge72  1  0.91200000  0.41666667  0.16666667  1.0
  Ge4+  Ge73  1  0.91200000  0.41666667  0.50000000  1.0
  Ge4+  Ge74  1  0.91200000  0.41666667  0.83333333  1.0
  Ge4+  Ge75  1  0.41200000  0.41666667  0.16666667  1.0
  Ge4+  Ge76  1  0.41200000  0.41666667  0.50000000  1.0
  Ge4+  Ge77  1  0.41200000  0.41666667  0.83333333  1.0
  Ge4+  Ge78  1  0.91200000  0.91666667  0.16666667  1.0
  Ge4+  Ge79  1  0.91200000  0.91666667  0.50000000  1.0
  Ge4+  Ge80  1  0.91200000  0.91666667  0.83333333  1.0
  Ge4+  Ge81  1  0.41200000  0.91666667  0.16666667  1.0
  Ge4+  Ge82  1  0.41200000  0.91666667  0.50000000  1.0
  Ge4+  Ge83  1  0.41200000  0.91666667  0.83333333  1.0
  Ge4+  Ge84  1  0.58800000  0.66666667  0.00000000  1.0
  Ge4+  Ge85  1  0.58800000  0.66666667  0.33333333  1.0
  Ge4+  Ge86  1  0.58800000  0.66666667  0.66666667  1.0
  Ge4+  Ge87  1  0.08800000  0.66666667  0.00000000  1.0
  Ge4+  Ge88  1  0.08800000  0.66666667  0.33333333  1.0
  Ge4+  Ge89  1  0.08800000  0.66666667  0.66666667  1.0
  Ge4+  Ge90  1  0.58800000  0.16666667  0.00000000  1.0
  Ge4+  Ge91  1  0.58800000  0.16666667  0.33333333  1.0
  Ge4+  Ge92  1  0.58800000  0.16666667  0.66666667  1.0
  Ge4+  Ge93  1  0.08800000  0.16666667  0.00000000  1.0
  Ge4+  Ge94  1  0.08800000  0.16666667  0.33333333  1.0
  Ge4+  Ge95  1  0.08800000  0.16666667  0.66666667  1.0
  O2-  O96  1  0.93300000  0.62716667  0.00133333  1.0
  O2-  O97  1  0.93300000  0.62716667  0.33466667  1.0
  O2-  O98  1  0.93300000  0.62716667  0.66800000  1.0
  O2-  O99  1  0.43300000  0.62716667  0.00133333  1.0
  O2-  O100  1  0.43300000  0.62716667  0.33466667  1.0
  O2-  O101  1  0.43300000  0.62716667  0.66800000  1.0
  O2-  O102  1  0.93300000  0.12716667  0.00133333  1.0
  O2-  O103  1  0.93300000  0.12716667  0.33466667  1.0
  O2-  O104  1  0.93300000  0.12716667  0.66800000  1.0
  O2-  O105  1  0.43300000  0.12716667  0.00133333  1.0
  O2-  O106  1  0.43300000  0.12716667  0.33466667  1.0
  O2-  O107  1  0.43300000  0.12716667  0.66800000  1.0
  O2-  O108  1  0.56700000  0.37716667  0.16800000  1.0
  O2-  O109  1  0.56700000  0.37716667  0.50133333  1.0
  O2-  O110  1  0.56700000  0.37716667  0.83466667  1.0
  O2-  O111  1  0.06700000  0.37716667  0.16800000  1.0
  O2-  O112  1  0.06700000  0.37716667  0.50133333  1.0
  O2-  O113  1  0.06700000  0.37716667  0.83466667  1.0
  O2-  O114  1  0.56700000  0.87716667  0.16800000  1.0
  O2-  O115  1  0.56700000  0.87716667  0.50133333  1.0
  O2-  O116  1  0.56700000  0.87716667  0.83466667  1.0
  O2-  O117  1  0.06700000  0.87716667  0.16800000  1.0
  O2-  O118  1  0.06700000  0.87716667  0.50133333  1.0
  O2-  O119  1  0.06700000  0.87716667  0.83466667  1.0
  O2-  O120  1  0.66400000  0.60766667  0.07733333  1.0
  O2-  O121  1  0.66400000  0.60766667  0.41066667  1.0
  O2-  O122  1  0.66400000  0.60766667  0.74400000  1.0
  O2-  O123  1  0.16400000  0.60766667  0.07733333  1.0
  O2-  O124  1  0.16400000  0.60766667  0.41066667  1.0
  O2-  O125  1  0.16400000  0.60766667  0.74400000  1.0
  O2-  O126  1  0.66400000  0.10766667  0.07733333  1.0
  O2-  O127  1  0.66400000  0.10766667  0.41066667  1.0
  O2-  O128  1  0.66400000  0.10766667  0.74400000  1.0
  O2-  O129  1  0.16400000  0.10766667  0.07733333  1.0
  O2-  O130  1  0.16400000  0.10766667  0.41066667  1.0
  O2-  O131  1  0.16400000  0.10766667  0.74400000  1.0
  O2-  O132  1  0.83600000  0.35766667  0.24400000  1.0
  O2-  O133  1  0.83600000  0.35766667  0.57733333  1.0
  O2-  O134  1  0.83600000  0.35766667  0.91066667  1.0
  O2-  O135  1  0.33600000  0.35766667  0.24400000  1.0
  O2-  O136  1  0.33600000  0.35766667  0.57733333  1.0
  O2-  O137  1  0.33600000  0.35766667  0.91066667  1.0
  O2-  O138  1  0.83600000  0.85766667  0.24400000  1.0
  O2-  O139  1  0.83600000  0.85766667  0.57733333  1.0
  O2-  O140  1  0.83600000  0.85766667  0.91066667  1.0
  O2-  O141  1  0.33600000  0.85766667  0.24400000  1.0
  O2-  O142  1  0.33600000  0.85766667  0.57733333  1.0
  O2-  O143  1  0.33600000  0.85766667  0.91066667  1.0
  O2-  O144  1  0.90650000  0.59066667  0.16766667  1.0
  O2-  O145  1  0.90650000  0.59066667  0.50100000  1.0
  O2-  O146  1  0.90650000  0.59066667  0.83433333  1.0
  O2-  O147  1  0.40650000  0.59066667  0.16766667  1.0
  O2-  O148  1  0.40650000  0.59066667  0.50100000  1.0
  O2-  O149  1  0.40650000  0.59066667  0.83433333  1.0
  O2-  O150  1  0.90650000  0.09066667  0.16766667  1.0
  O2-  O151  1  0.90650000  0.09066667  0.50100000  1.0
  O2-  O152  1  0.90650000  0.09066667  0.83433333  1.0
  O2-  O153  1  0.40650000  0.09066667  0.16766667  1.0
  O2-  O154  1  0.40650000  0.09066667  0.50100000  1.0
  O2-  O155  1  0.40650000  0.09066667  0.83433333  1.0
  O2-  O156  1  0.59350000  0.34066667  0.00100000  1.0
  O2-  O157  1  0.59350000  0.34066667  0.33433333  1.0
  O2-  O158  1  0.59350000  0.34066667  0.66766667  1.0
  O2-  O159  1  0.09350000  0.34066667  0.00100000  1.0
  O2-  O160  1  0.09350000  0.34066667  0.33433333  1.0
  O2-  O161  1  0.09350000  0.34066667  0.66766667  1.0
  O2-  O162  1  0.59350000  0.84066667  0.00100000  1.0
  O2-  O163  1  0.59350000  0.84066667  0.33433333  1.0
  O2-  O164  1  0.59350000  0.84066667  0.66766667  1.0
  O2-  O165  1  0.09350000  0.84066667  0.00100000  1.0
  O2-  O166  1  0.09350000  0.84066667  0.33433333  1.0
  O2-  O167  1  0.09350000  0.84066667  0.66766667  1.0
  O2-  O168  1  0.84250000  0.35666667  0.08833333  1.0
  O2-  O169  1  0.84250000  0.35666667  0.42166667  1.0
  O2-  O170  1  0.84250000  0.35666667  0.75500000  1.0
  O2-  O171  1  0.34250000  0.35666667  0.08833333  1.0
  O2-  O172  1  0.34250000  0.35666667  0.42166667  1.0
  O2-  O173  1  0.34250000  0.35666667  0.75500000  1.0
  O2-  O174  1  0.84250000  0.85666667  0.08833333  1.0
  O2-  O175  1  0.84250000  0.85666667  0.42166667  1.0
  O2-  O176  1  0.84250000  0.85666667  0.75500000  1.0
  O2-  O177  1  0.34250000  0.85666667  0.08833333  1.0
  O2-  O178  1  0.34250000  0.85666667  0.42166667  1.0
  O2-  O179  1  0.34250000  0.85666667  0.75500000  1.0
  O2-  O180  1  0.65750000  0.60666667  0.25500000  1.0
  O2-  O181  1  0.65750000  0.60666667  0.58833333  1.0
  O2-  O182  1  0.65750000  0.60666667  0.92166667  1.0
  O2-  O183  1  0.15750000  0.60666667  0.25500000  1.0
  O2-  O184  1  0.15750000  0.60666667  0.58833333  1.0
  O2-  O185  1  0.15750000  0.60666667  0.92166667  1.0
  O2-  O186  1  0.65750000  0.10666667  0.25500000  1.0
  O2-  O187  1  0.65750000  0.10666667  0.58833333  1.0
  O2-  O188  1  0.65750000  0.10666667  0.92166667  1.0
  O2-  O189  1  0.15750000  0.10666667  0.25500000  1.0
  O2-  O190  1  0.15750000  0.10666667  0.58833333  1.0
  O2-  O191  1  0.15750000  0.10666667  0.92166667  1.0
