# generated using pymatgen
data_Li2ZnGeO4
_symmetry_space_group_name_H-M   'P 1'
_cell_length_a   10.08000000
_cell_length_b   10.90000000
_cell_length_c   19.20000000
_cell_angle_alpha   90.00000000
_cell_angle_beta   90.20000000
_cell_angle_gamma   90.00000000
_symmetry_Int_Tables_number   1
_chemical_formula_structural   Li2ZnGeO4
_chemical_formula_sum   'Li48 Zn24 Ge24 O96'
_cell_volume   2109.52954795
_cell_formula_units_Z   24
loop_
 _symmetry_equiv_pos_site_id
 _symmetry_equiv_pos_as_xyz
  1  'x, y, z'
loop_
 _atom_type_symbol
 _atom_type_oxidation_number
  Li+  1.0
  Zn2+  2.0
  Ge4+  4.0
  O2-  -2.0
loop_
 _atom_site_type_symbol
 _atom_site_label
 _atom_site_symmetry_multiplicity
 _atom_site_fract_x
 _atom_site_fract_y
 _atom_site_fract_z
 _atom_site_occupancy
  Li+  Li1  1  0.25000000  0.06650000  0.00000000  1.0
  Li+  Li1  1  0.25000000  0.06650000  0.33333333  1.0
  Li+  Li1  1  0.25000000  0.06650000  0.66666667  1.0
  Li+  Li1  1  0.25000000  0.56650000  0.00000000  1.0
  Li+  Li1  1  0.25000000  0.56650000  0.33333333  1.0
  Li+  Li1  1  0.25000000  0.56650000  0.66666667  1.0
  Li+  Li1  1  0.75000000  0.06650000  0.00000000  1.0
  Li+  Li1  1  0.75000000  0.06650000  0.33333333  1.0
  Li+  Li1  1  0.75000000  0.06650000  0.66666667  1.0
  Li+  Li1  1  0.75000000  0.56650000  0.00000000  1.0
  Li+  Li1  1  0.75000000  0.56650000  0.33333333  1.0
  Li+  Li1  1  0.75000000  0.56650000  0.66666667  1.0
  Li+  Li1  1  0.50000000  0.43350000  0.16666667  1.0
  Li+  Li1  1  0.50000000  0.43350000  0.50000000  1.0
  Li+  Li1  1  0.50000000  0.43350000  0.83333333  1.0
  Li+  Li1  1  0.50000000  0.93350000  0.16666667  1.0
  Li+  Li1  1  0.50000000  0.93350000  0.50000000  1.0
  Li+  Li1  1  0.50000000  0.93350000  0.83333333  1.0
  Li+  Li1  1  0.00000000  0.43350000  0.16666667  1.0
  Li+  Li1  1  0.00000000  0.43350000  0.50000000  1.0
  Li+  Li1  1  0.00000000  0.43350000  0.83333333  1.0
  Li+  Li1  1  0.00000000  0.93350000  0.16666667  1.0
  Li+  Li1  1  0.00000000  0.93350000  0.50000000  1.0
  Li+  Li1  1  0.00000000  0.93350000  0.83333333  1.0
  Li+  Li2  1  0.50000000  0.15850000  0.25000000  1.0
  Li+  Li2  1  0.50000000  0.15850000  0.58333333  1.0
  Li+  Li2  1  0.50000000  0.15850000  0.91666667  1.0
  Li+  Li2  1  0.50000000  0.65850000  0.25000000  1.0
  Li+  Li2  1  0.50000000  0.65850000  0.58333333  1.0
  Li+  Li2  1  0.50000000  0.65850000  0.91666667  1.0
  Li+  Li2  1  0.00000000  0.15850000  0.25000000  1.0
  Li+  Li2  1  0.00000000  0.15850000  0.58333333  1.0
  Li+  Li2  1  0.00000000  0.15850000  0.91666667  1.0
  Li+  Li2  1  0.00000000  0.65850000  0.25000000  1.0
  Li+  Li2  1  0.00000000  0.65850000  0.58333333  1.0
  Li+  Li2  1  0.00000000  0.65850000  0.91666667  1.0
  Li+  Li2  1  0.25000000  0.34150000  0.08333333  1.0
  Li+  Li2  1  0.25000000  0.34150000  0.41666667  1.0
  Li+  Li2  1  0.25000000  0.34150000  0.75000000  1.0
  Li+  Li2  1  0.25000000  0.84150000  0.08333333  1.0
  Li+  Li2  1  0.25000000  0.84150000  0.41666667  1.0
  Li+  Li2  1  0.25000000  0.84150000  0.75000000  1.0
  Li+  Li2  1  0.75000000  0.34150000  0.08333333  1.0
  Li+  Li2  1  0.75000000  0.34150000  0.41666667  1.0
  Li+  Li2  1  0.75000000  0.34150000  0.75000000  1.0
  Li+  Li2  1  0.75000000  0.84150000  0.08333333  1.0
  Li+  Li2  1  0.75000000  0.84150000  0.41666667  1.0
  Li+  Li2  1  0.75000000  0.84150000  0.75000000  1.0
  Zn2+  Zn1  1  0.00200000  0.17000000  0.08233333  1.0
  Zn2+  Zn1  1  0.00200000  0.17000000  0.41566667  1.0
  Zn2+  Zn1  1  0.00200000  0.17000000  0.74900000  1.0
  Zn2+  Zn1  1  0.00200000  0.67000000  0.08233333  1.0
  Zn2+  Zn1  1  0.00200000  0.67000000  0.41566667  1.0
  Zn2+  Zn1  1  0.00200000  0.67000000  0.74900000  1.0
  Zn2+  Zn1  1  0.50200000  0.17000000  0.08233333  1.0
  Zn2+  Zn1  1  0.50200000  0.17000000  0.41566667  1.0
  Zn2+  Zn1  1  0.50200000  0.17000000  0.74900000  1.0
  Zn2+  Zn1  1  0.50200000  0.67000000  0.08233333  1.0
  Zn2+  Zn1  1  0.50200000  0.67000000  0.41566667  1.0
  Zn2+  Zn1  1  0.50200000  0.67000000  0.74900000  1.0
  Zn2+  Zn1  1  0.25200000  0.33000000  0.24900000  1.0
  Zn2+  Zn1  1  0.25200000  0.33000000  0.58233333  1.0
  Zn2+  Zn1  1  0.25200000  0.33000000  0.91566667  1.0
  Zn2+  Zn1  1  0.25200000  0.83000000  0.24900000  1.0
  Zn2+  Zn1  1  0.25200000  0.83000000  0.58233333  1.0
  Zn2+  Zn1  1  0.25200000  0.83000000  0.91566667  1.0
  Zn2+  Zn1  1  0.75200000  0.33000000  0.24900000  1.0
  Zn2+  Zn1  1  0.75200000  0.33000000  0.58233333  1.0
  Zn2+  Zn1  1  0.75200000  0.33000000  0.91566667  1.0
  Zn2+  Zn1  1  0.75200000  0.83000000  0.24900000  1.0
  Zn2+  Zn1  1  0.75200000  0.83000000  0.58233333  1.0
  Zn2+  Zn1  1  0.75200000  0.83000000  0.91566667  1.0
  Ge4+  Ge1  1  0.25000000  0.08800000  0.16666667  1.0
  Ge4+  Ge1  1  0.25000000  0.08800000  0.50000000  1.0
  Ge4+  Ge1  1  0.25000000  0.08800000  0.83333333  1.0
  Ge4+  Ge1  1  0.25000000  0.58800000  0.16666667  1.0
  Ge4+  Ge1  1  0.25000000  0.58800000  0.50000000  1.0
  Ge4+  Ge1  1  0.25000000  0.58800000  0.83333333  1.0
  Ge4+  Ge1  1  0.75000000  0.08800000  0.16666667  1.0
  Ge4+  Ge1  1  0.75000000  0.08800000  0.50000000  1.0
  Ge4+  Ge1  1  0.75000000  0.08800000  0.83333333  1.0
  Ge4+  Ge1  1  0.75000000  0.58800000  0.16666667  1.0
  Ge4+  Ge1  1  0.75000000  0.58800000  0.50000000  1.0
  Ge4+  Ge1  1  0.75000000  0.58800000  0.83333333  1.0
  Ge4+  Ge1  1  0.00000000  0.41200000  0.00000000  1.0
  Ge4+  Ge1  1  0.00000000  0.41200000  0.33333333  1.0
  Ge4+  Ge1  1  0.00000000  0.41200000  0.66666667  1.0
  Ge4+  Ge1  1  0.00000000  0.91200000  0.00000000  1.0
  Ge4+  Ge1  1  0.00000000  0.91200000  0.33333333  1.0
  Ge4+  Ge1  1  0.00000000  0.91200000  0.66666667  1.0
  Ge4+  Ge1  1  0.50000000  0.41200000  0.00000000  1.0
  Ge4+  Ge1  1  0.50000000  0.41200000  0.33333333  1.0
  Ge4+  Ge1  1  0.50000000  0.41200000  0.66666667  1.0
  Ge4+  Ge1  1  0.50000000  0.91200000  0.00000000  1.0
  Ge4+  Ge1  1  0.50000000  0.91200000  0.33333333  1.0
  Ge4+  Ge1  1  0.50000000  0.91200000  0.66666667  1.0
  O2-  O1  1  0.03950000  0.06700000  0.00133333  1.0
  O2-  O1  1  0.03950000  0.06700000  0.33466667  1.0
  O2-  O1  1  0.03950000  0.06700000  0.66800000  1.0
  O2-  O1  1  0.03950000  0.56700000  0.00133333  1.0
  O2-  O1  1  0.03950000  0.56700000  0.33466667  1.0
  O2-  O1  1  0.03950000  0.56700000  0.66800000  1.0
  O2-  O1  1  0.53950000  0.06700000  0.00133333  1.0
  O2-  O1  1  0.53950000  0.06700000  0.33466667  1.0
  O2-  O1  1  0.53950000  0.06700000  0.66800000  1.0
  O2-  O1  1  0.53950000  0.56700000  0.00133333  1.0
  O2-  O1  1  0.53950000  0.56700000  0.33466667  1.0
  O2-  O1  1  0.53950000  0.56700000  0.66800000  1.0
  O2-  O1  1  0.28950000  0.43300000  0.16800000  1.0
  O2-  O1  1  0.28950000  0.43300000  0.50133333  1.0
  O2-  O1  1  0.28950000  0.43300000  0.83466667  1.0
  O2-  O1  1  0.28950000  0.93300000  0.16800000  1.0
  O2-  O1  1  0.28950000  0.93300000  0.50133333  1.0
  O2-  O1  1  0.28950000  0.93300000  0.83466667  1.0
  O2-  O1  1  0.78950000  0.43300000  0.16800000  1.0
  O2-  O1  1  0.78950000  0.43300000  0.50133333  1.0
  O2-  O1  1  0.78950000  0.43300000  0.83466667  1.0
  O2-  O1  1  0.78950000  0.93300000  0.16800000  1.0
  O2-  O1  1  0.78950000  0.93300000  0.50133333  1.0
  O2-  O1  1  0.78950000  0.93300000  0.83466667  1.0
  O2-  O2  1  0.05900000  0.33600000  0.07733333  1.0
  O2-  O2  1  0.05900000  0.33600000  0.41066667  1.0
  O2-  O2  1  0.05900000  0.33600000  0.74400000  1.0
  O2-  O2  1  0.05900000  0.83600000  0.07733333  1.0
  O2-  O2  1  0.05900000  0.83600000  0.41066667  1.0
  O2-  O2  1  0.05900000  0.83600000  0.74400000  1.0
  O2-  O2  1  0.55900000  0.33600000  0.07733333  1.0
  O2-  O2  1  0.55900000  0.33600000  0.41066667  1.0
  O2-  O2  1  0.55900000  0.33600000  0.74400000  1.0
  O2-  O2  1  0.55900000  0.83600000  0.07733333  1.0
  O2-  O2  1  0.55900000  0.83600000  0.41066667  1.0
  O2-  O2  1  0.55900000  0.83600000  0.74400000  1.0
  O2-  O2  1  0.30900000  0.16400000  0.24400000  1.0
  O2-  O2  1  0.30900000  0.16400000  0.57733333  1.0
  O2-  O2  1  0.30900000  0.16400000  0.91066667  1.0
  O2-  O2  1  0.30900000  0.66400000  0.24400000  1.0
  O2-  O2  1  0.30900000  0.66400000  0.57733333  1.0
  O2-  O2  1  0.30900000  0.66400000  0.91066667  1.0
  O2-  O2  1  0.80900000  0.16400000  0.24400000  1.0
  O2-  O2  1  0.80900000  0.16400000  0.57733333  1.0
  O2-  O2  1  0.80900000  0.16400000  0.91066667  1.0
  O2-  O2  1  0.80900000  0.66400000  0.24400000  1.0
  O2-  O2  1  0.80900000  0.66400000  0.57733333  1.0
  O2-  O2  1  0.80900000  0.66400000  0.91066667  1.0
  O2-  O3  1  0.07600000  0.09350000  0.16766667  1.0
  O2-  O3  1  0.07600000  0.09350000  0.50100000  1.0
  O2-  O3  1  0.07600000  0.09350000  0.83433333  1.0
  O2-  O3  1  0.07600000  0.59350000  0.16766667  1.0
  O2-  O3  1  0.07600000  0.59350000  0.50100000  1.0
  O2-  O3  1  0.07600000  0.59350000  0.83433333  1.0
  O2-  O3  1  0.57600000  0.09350000  0.16766667  1.0
  O2-  O3  1  0.57600000  0.09350000  0.50100000  1.0
  O2-  O3  1  0.57600000  0.09350000  0.83433333  1.0
  O2-  O3  1  0.57600000  0.59350000  0.16766667  1.0
  O2-  O3  1  0.57600000  0.59350000  0.50100000  1.0
  O2-  O3  1  0.57600000  0.59350000  0.83433333  1.0
  O2-  O3  1  0.32600000  0.40650000  0.00100000  1.0
  O2-  O3  1  0.32600000  0.40650000  0.33433333  1.0
  O2-  O3  1  0.32600000  0.40650000  0.66766667  1.0
  O2-  O3  1  0.32600000  0.90650000  0.00100000  1.0
  O2-  O3  1  0.32600000  0.90650000  0.33433333  1.0
  O2-  O3  1  0.32600000  0.90650000  0.66766667  1.0
  O2-  O3  1  0.82600000  0.40650000  0.00100000  1.0
  O2-  O3  1  0.82600000  0.40650000  0.33433333  1.0
  O2-  O3  1  0.82600000  0.40650000  0.66766667  1.0
  O2-  O3  1  0.82600000  0.90650000  0.00100000  1.0
  O2-  O3  1  0.82600000  0.90650000  0.33433333  1.0
  O2-  O3  1  0.82600000  0.90650000  0.66766667  1.0
  O2-  O4  1  0.31000000  0.15750000  0.08833333  1.0
  O2-  O4  1  0.31000000  0.15750000  0.42166667  1.0
  O2-  O4  1  0.31000000  0.15750000  0.75500000  1.0
  O2-  O4  1  0.31000000  0.65750000  0.08833333  1.0
  O2-  O4  1  0.31000000  0.65750000  0.42166667  1.0
  O2-  O4  1  0.31000000  0.65750000  0.75500000  1.0
  O2-  O4  1  0.81000000  0.15750000  0.08833333  1.0
  O2-  O4  1  0.81000000  0.15750000  0.42166667  1.0
  O2-  O4  1  0.81000000  0.15750000  0.75500000  1.0
  O2-  O4  1  0.81000000  0.65750000  0.08833333  1.0
  O2-  O4  1  0.81000000  0.65750000  0.42166667  1.0
  O2-  O4  1  0.81000000  0.65750000  0.75500000  1.0
  O2-  O4  1  0.06000000  0.34250000  0.25500000  1.0
  O2-  O4  1  0.06000000  0.34250000  0.58833333  1.0
  O2-  O4  1  0.06000000  0.34250000  0.92166667  1.0
  O2-  O4  1  0.06000000  0.84250000  0.25500000  1.0
  O2-  O4  1  0.06000000  0.84250000  0.58833333  1.0
  O2-  O4  1  0.06000000  0.84250000  0.92166667  1.0
  O2-  O4  1  0.56000000  0.34250000  0.25500000  1.0
  O2-  O4  1  0.56000000  0.34250000  0.58833333  1.0
  O2-  O4  1  0.56000000  0.34250000  0.92166667  1.0
  O2-  O4  1  0.56000000  0.84250000  0.25500000  1.0
  O2-  O4  1  0.56000000  0.84250000  0.58833333  1.0
  O2-  O4  1  0.56000000  0.84250000  0.92166667  1.0
