# generated using pymatgen
data_Li61SiP9(S5Br)10
_symmetry_space_group_name_H-M   'P 1'
_cell_length_a   14.14552974
_cell_length_b   35.36382434
_cell_length_c   7.07276487
_cell_angle_alpha   60.00000000
_cell_angle_beta   60.00000000
_cell_angle_gamma   60.00000000
_symmetry_Int_Tables_number   1
_chemical_formula_structural   Li61SiP9(S5Br)10
_chemical_formula_sum   'Li61 Si1 P9 S50 Br10'
_cell_volume   2501.80043330
_cell_formula_units_Z   1
loop_
 _symmetry_equiv_pos_site_id
 _symmetry_equiv_pos_as_xyz
  1  'x, y, z'
loop_
 _atom_type_symbol
 _atom_type_oxidation_number
  Li+  1.0
  Si4+  4.0
  P5+  5.0
  S2-  -2.0
  Br-  -1.0
loop_
 _atom_site_type_symbol
 _atom_site_label
 _atom_site_symmetry_multiplicity
 _atom_site_fract_x
 _atom_site_fract_y
 _atom_site_fract_z
 _atom_site_occupancy
  Li+  Li0  1  0.00850000  0.80340000  0.48300000  1.0
  Li+  Li1  1  0.00850000  0.69660000  0.48300000  1.0
  Li+  Li2  1  0.24150000  0.00340000  0.48300000  1.0
  Li+  Li3  1  0.74150000  0.40340000  0.48300000  1.0
  Li+  Li4  1  0.74150000  0.80340000  0.48300000  1.0
  Li+  Li5  1  0.24150000  0.00340000  0.01700000  1.0
  Li+  Li6  1  0.24150000  0.49660000  0.01700000  1.0
  Li+  Li7  1  0.74150000  0.89660000  0.01700000  1.0
  Li+  Li8  1  0.01255000  0.47214000  0.02510000  1.0
  Li+  Li9  1  0.01255000  0.67214000  0.02510000  1.0
  Li+  Li10  1  0.01255000  0.87214000  0.02510000  1.0
  Li+  Li11  1  0.51255000  0.07214000  0.02510000  1.0
  Li+  Li12  1  0.51255000  0.47214000  0.02510000  1.0
  Li+  Li13  1  0.51255000  0.67214000  0.02510000  1.0
  Li+  Li14  1  0.01255000  0.00502000  0.58910000  1.0
  Li+  Li15  1  0.01255000  0.20502000  0.58910000  1.0
  Li+  Li16  1  0.01255000  0.60502000  0.58910000  1.0
  Li+  Li17  1  0.51255000  0.60502000  0.58910000  1.0
  Li+  Li18  1  0.01255000  0.31782000  0.36070000  1.0
  Li+  Li19  1  0.01255000  0.71782000  0.36070000  1.0
  Li+  Li20  1  0.51255000  0.31782000  0.36070000  1.0
  Li+  Li21  1  0.01255000  0.07214000  0.58910000  1.0
  Li+  Li22  1  0.01255000  0.87214000  0.58910000  1.0
  Li+  Li23  1  0.51255000  0.87214000  0.58910000  1.0
  Li+  Li24  1  0.01255000  0.40502000  0.36070000  1.0
  Li+  Li25  1  0.01255000  0.60502000  0.36070000  1.0
  Li+  Li26  1  0.51255000  0.20502000  0.36070000  1.0
  Li+  Li27  1  0.01255000  0.11782000  0.02510000  1.0
  Li+  Li28  1  0.01255000  0.31782000  0.02510000  1.0
  Li+  Li29  1  0.51255000  0.11782000  0.02510000  1.0
  Li+  Li30  1  0.51255000  0.31782000  0.02510000  1.0
  Li+  Li31  1  0.51255000  0.91782000  0.02510000  1.0
  Li+  Li32  1  0.18035000  0.20502000  0.58910000  1.0
  Li+  Li33  1  0.18035000  0.40502000  0.58910000  1.0
  Li+  Li34  1  0.68035000  0.00502000  0.58910000  1.0
  Li+  Li35  1  0.68035000  0.20502000  0.58910000  1.0
  Li+  Li36  1  0.29455000  0.00502000  0.02510000  1.0
  Li+  Li37  1  0.29455000  0.20502000  0.02510000  1.0
  Li+  Li38  1  0.29455000  0.40502000  0.02510000  1.0
  Li+  Li39  1  0.29455000  0.80502000  0.02510000  1.0
  Li+  Li40  1  0.79455000  0.20502000  0.02510000  1.0
  Li+  Li41  1  0.79455000  0.40502000  0.02510000  1.0
  Li+  Li42  1  0.79455000  0.80502000  0.02510000  1.0
  Li+  Li43  1  0.18035000  0.20502000  0.02510000  1.0
  Li+  Li44  1  0.18035000  0.40502000  0.02510000  1.0
  Li+  Li45  1  0.18035000  0.60502000  0.02510000  1.0
  Li+  Li46  1  0.68035000  0.20502000  0.02510000  1.0
  Li+  Li47  1  0.68035000  0.40502000  0.02510000  1.0
  Li+  Li48  1  0.29455000  0.20502000  0.36070000  1.0
  Li+  Li49  1  0.29455000  0.60502000  0.36070000  1.0
  Li+  Li50  1  0.29455000  0.80502000  0.36070000  1.0
  Li+  Li51  1  0.79455000  0.20502000  0.36070000  1.0
  Li+  Li52  1  0.79455000  0.40502000  0.36070000  1.0
  Li+  Li53  1  0.29455000  0.27214000  0.02510000  1.0
  Li+  Li54  1  0.29455000  0.87214000  0.02510000  1.0
  Li+  Li55  1  0.79455000  0.47214000  0.02510000  1.0
  Li+  Li56  1  0.18035000  0.31782000  0.02510000  1.0
  Li+  Li57  1  0.18035000  0.71782000  0.02510000  1.0
  Li+  Li58  1  0.68035000  0.11782000  0.02510000  1.0
  Li+  Li59  1  0.68035000  0.71782000  0.02510000  1.0
  Li+  Li60  1  0.68035000  0.91782000  0.02510000  1.0
  Si4+  Si61  1  0.25000000  0.30000000  0.50000000  1.0
  P5+  P62  1  0.25000000  0.10000000  0.50000000  1.0
  P5+  P63  1  0.25000000  0.50000000  0.50000000  1.0
  P5+  P64  1  0.25000000  0.70000000  0.50000000  1.0
  P5+  P65  1  0.25000000  0.90000000  0.50000000  1.0
  P5+  P66  1  0.75000000  0.10000000  0.50000000  1.0
  P5+  P67  1  0.75000000  0.30000000  0.50000000  1.0
  P5+  P68  1  0.75000000  0.50000000  0.50000000  1.0
  P5+  P69  1  0.75000000  0.70000000  0.50000000  1.0
  P5+  P70  1  0.75000000  0.90000000  0.50000000  1.0
  S2-  S2  1  0.30965000  0.12386000  0.14210000  1.0
  S2-  S2  1  0.30965000  0.32386000  0.14210000  1.0
  S2-  S2  1  0.30965000  0.52386000  0.14210000  1.0
  S2-  S2  1  0.30965000  0.72386000  0.14210000  1.0
  S2-  S2  1  0.30965000  0.92386000  0.14210000  1.0
  S2-  S2  1  0.80965000  0.12386000  0.14210000  1.0
  S2-  S2  1  0.80965000  0.32386000  0.14210000  1.0
  S2-  S2  1  0.80965000  0.52386000  0.14210000  1.0
  S2-  S2  1  0.80965000  0.72386000  0.14210000  1.0
  S2-  S2  1  0.80965000  0.92386000  0.14210000  1.0
  S2-  S2  1  0.30965000  0.02842000  0.61930000  1.0
  S2-  S2  1  0.30965000  0.22842000  0.61930000  1.0
  S2-  S2  1  0.30965000  0.42842000  0.61930000  1.0
  S2-  S2  1  0.30965000  0.62842000  0.61930000  1.0
  S2-  S2  1  0.30965000  0.82842000  0.61930000  1.0
  S2-  S2  1  0.80965000  0.02842000  0.61930000  1.0
  S2-  S2  1  0.80965000  0.22842000  0.61930000  1.0
  S2-  S2  1  0.80965000  0.42842000  0.61930000  1.0
  S2-  S2  1  0.80965000  0.62842000  0.61930000  1.0
  S2-  S2  1  0.80965000  0.82842000  0.61930000  1.0
  S2-  S2  1  0.30965000  0.12386000  0.61930000  1.0
  S2-  S2  1  0.30965000  0.32386000  0.61930000  1.0
  S2-  S2  1  0.30965000  0.52386000  0.61930000  1.0
  S2-  S2  1  0.30965000  0.72386000  0.61930000  1.0
  S2-  S2  1  0.30965000  0.92386000  0.61930000  1.0
  S2-  S2  1  0.80965000  0.12386000  0.61930000  1.0
  S2-  S2  1  0.80965000  0.32386000  0.61930000  1.0
  S2-  S2  1  0.80965000  0.52386000  0.61930000  1.0
  S2-  S2  1  0.80965000  0.72386000  0.61930000  1.0
  S2-  S2  1  0.80965000  0.92386000  0.61930000  1.0
  S2-  S2  1  0.07105000  0.12386000  0.61930000  1.0
  S2-  S2  1  0.07105000  0.32386000  0.61930000  1.0
  S2-  S2  1  0.07105000  0.52386000  0.61930000  1.0
  S2-  S2  1  0.07105000  0.72386000  0.61930000  1.0
  S2-  S2  1  0.07105000  0.92386000  0.61930000  1.0
  S2-  S2  1  0.57105000  0.12386000  0.61930000  1.0
  S2-  S2  1  0.57105000  0.32386000  0.61930000  1.0
  S2-  S2  1  0.57105000  0.52386000  0.61930000  1.0
  S2-  S2  1  0.57105000  0.72386000  0.61930000  1.0
  S2-  S2  1  0.57105000  0.92386000  0.61930000  1.0
  S2-  S111  1  0.00000000  0.80000000  0.00000000  1.0
  S2-  S112  1  0.50000000  0.20000000  0.00000000  1.0
  S2-  S113  1  0.12500000  0.05000000  0.25000000  1.0
  S2-  S114  1  0.12500000  0.25000000  0.25000000  1.0
  S2-  S115  1  0.12500000  0.45000000  0.25000000  1.0
  S2-  S116  1  0.62500000  0.05000000  0.25000000  1.0
  S2-  S117  1  0.62500000  0.25000000  0.25000000  1.0
  S2-  S118  1  0.62500000  0.45000000  0.25000000  1.0
  S2-  S119  1  0.62500000  0.65000000  0.25000000  1.0
  S2-  S120  1  0.62500000  0.85000000  0.25000000  1.0
  Br-  Br121  1  0.00000000  0.00000000  0.00000000  1.0
  Br-  Br122  1  0.00000000  0.20000000  0.00000000  1.0
  Br-  Br123  1  0.00000000  0.40000000  0.00000000  1.0
  Br-  Br124  1  0.00000000  0.60000000  0.00000000  1.0
  Br-  Br125  1  0.50000000  0.00000000  0.00000000  1.0
  Br-  Br126  1  0.50000000  0.40000000  0.00000000  1.0
  Br-  Br127  1  0.50000000  0.60000000  1.00000000  1.0
  Br-  Br128  1  0.50000000  0.80000000  1.00000000  1.0
  Br-  Br129  1  0.12500000  0.65000000  0.25000000  1.0
  Br-  Br130  1  0.12500000  0.85000000  0.25000000  1.0
