# generated using pymatgen
data_Li2SiN2
_symmetry_space_group_name_H-M   'P 1'
_cell_length_a   9.90700000
_cell_length_b   15.01400000
_cell_length_c   9.90700000
_cell_angle_alpha   90.00000000
_cell_angle_beta   90.00000000
_cell_angle_gamma   90.00000000
_symmetry_Int_Tables_number   1
_chemical_formula_structural   Li2SiN2
_chemical_formula_sum   'Li64 Si32 N64'
_cell_volume   1473.60381609
_cell_formula_units_Z   32
loop_
 _symmetry_equiv_pos_site_id
 _symmetry_equiv_pos_as_xyz
  1  'x, y, z'
loop_
 _atom_type_symbol
 _atom_type_oxidation_number
  Li+  1.0
  Si4+  4.0
  N3-  -3.0
loop_
 _atom_site_type_symbol
 _atom_site_label
 _atom_site_symmetry_multiplicity
 _atom_site_fract_x
 _atom_site_fract_y
 _atom_site_fract_z
 _atom_site_occupancy
  Li+  Li0  1  0.89696948  0.12151317  0.90588421  1.0
  Li+  Li1  1  0.39750853  0.88106735  0.09526996  1.0
  Li+  Li2  1  0.10080000  0.37750000  0.40200000  1.0
  Li+  Li3  1  0.60080000  0.62250000  0.59800000  1.0
  Li+  Li4  1  0.10440020  0.87761980  0.59666437  1.0
  Li+  Li5  1  0.60080000  0.12250000  0.40200000  1.0
  Li+  Li6  1  0.89920000  0.62250000  0.09800000  1.0
  Li+  Li7  1  0.39920000  0.37750000  0.90200000  1.0
  Li+  Li8  1  0.10330000  0.02100000  0.68870000  1.0
  Li+  Li9  1  0.60330000  0.97900000  0.31130000  1.0
  Li+  Li10  1  0.89670000  0.47900000  0.18870000  1.0
  Li+  Li11  1  0.39670000  0.52100000  0.81130000  1.0
  Li+  Li12  1  0.89721790  0.98032038  0.80768565  1.0
  Li+  Li13  1  0.39512935  0.01758186  0.18963106  1.0
  Li+  Li14  1  0.10330000  0.52100000  0.31130000  1.0
  Li+  Li15  1  0.60330000  0.47900000  0.68870000  1.0
  Li+  Li16  1  0.32780000  0.22820000  0.91160000  1.0
  Li+  Li17  1  0.82391134  0.76995423  0.08879143  1.0
  Li+  Li18  1  0.67220000  0.27180000  0.41160000  1.0
  Li+  Li19  1  0.17220000  0.72820000  0.58840000  1.0
  Li+  Li20  1  0.67236782  0.77146463  0.58553735  1.0
  Li+  Li21  1  0.17103431  0.22520090  0.41256599  1.0
  Li+  Li22  1  0.32780000  0.72820000  0.08840000  1.0
  Li+  Li23  1  0.82780000  0.27180000  0.91160000  1.0
  Li+  Li24  1  0.63650000  0.03720000  0.82750000  1.0
  Li+  Li25  1  0.13928253  0.95777310  0.17414091  1.0
  Li+  Li26  1  0.36350000  0.46280000  0.32750000  1.0
  Li+  Li27  1  0.86350000  0.53720000  0.67250000  1.0
  Li+  Li28  1  0.36350000  0.96280000  0.67250000  1.0
  Li+  Li29  1  0.86350000  0.03720000  0.32750000  1.0
  Li+  Li30  1  0.64191534  0.53851419  0.17423835  1.0
  Li+  Li31  1  0.13650000  0.46280000  0.82750000  1.0
  Li+  Li32  1  0.36200000  0.12140000  0.45400000  1.0
  Li+  Li33  1  0.86200000  0.87860000  0.54600000  1.0
  Li+  Li34  1  0.63800000  0.37860000  0.95400000  1.0
  Li+  Li35  1  0.13887192  0.62073661  0.04601504  1.0
  Li+  Li36  1  0.63765661  0.87507057  0.04650995  1.0
  Li+  Li37  1  0.14142604  0.11908574  0.95237426  1.0
  Li+  Li38  1  0.36200000  0.62140000  0.54600000  1.0
  Li+  Li39  1  0.86200000  0.37860000  0.45400000  1.0
  Li+  Li40  1  0.30880000  0.28400000  0.64380000  1.0
  Li+  Li41  1  0.80880000  0.71600000  0.35620000  1.0
  Li+  Li42  1  0.69120000  0.21600000  0.14380000  1.0
  Li+  Li43  1  0.19120000  0.78400000  0.85620000  1.0
  Li+  Li44  1  0.69120000  0.71600000  0.85620000  1.0
  Li+  Li45  1  0.19191505  0.28570360  0.14026805  1.0
  Li+  Li46  1  0.30880000  0.78400000  0.35620000  1.0
  Li+  Li47  1  0.80880000  0.21600000  0.64380000  1.0
  Li+  Li48  1  0.29210000  0.12470000  0.72170000  1.0
  Li+  Li49  1  0.79108440  0.87562476  0.28342843  1.0
  Li+  Li50  1  0.70790000  0.37530000  0.22170000  1.0
  Li+  Li51  1  0.20790000  0.62470000  0.77830000  1.0
  Li+  Li52  1  0.70790000  0.87530000  0.77830000  1.0
  Li+  Li53  1  0.20790000  0.12470000  0.22170000  1.0
  Li+  Li54  1  0.29470608  0.62441205  0.28037521  1.0
  Li+  Li55  1  0.79210000  0.37530000  0.72170000  1.0
  Li+  Li56  1  0.95660000  0.12660000  0.13080000  1.0
  Li+  Li57  1  0.45660000  0.87340000  0.86920000  1.0
  Li+  Li58  1  0.04340000  0.37340000  0.63080000  1.0
  Li+  Li59  1  0.54340000  0.62660000  0.36920000  1.0
  Li+  Li60  1  0.04042952  0.87044935  0.36798285  1.0
  Li+  Li61  1  0.54340000  0.12660000  0.63080000  1.0
  Li+  Li62  1  0.95606726  0.62339439  0.87122779  1.0
  Li+  Li63  1  0.45660000  0.37340000  0.13080000  1.0
  Si4+  Si64  1  0.85840000  0.05669000  0.58286000  1.0
  Si4+  Si65  1  0.35840000  0.94331000  0.41714000  1.0
  Si4+  Si66  1  0.14160000  0.44331000  0.08286000  1.0
  Si4+  Si67  1  0.64160000  0.55669000  0.91714000  1.0
  Si4+  Si68  1  0.13872340  0.94183836  0.91384554  1.0
  Si4+  Si69  1  0.64160000  0.05669000  0.08286000  1.0
  Si4+  Si70  1  0.85840000  0.55669000  0.41714000  1.0
  Si4+  Si71  1  0.35840000  0.44331000  0.58286000  1.0
  Si4+  Si72  1  0.10895000  0.05739000  0.43068000  1.0
  Si4+  Si73  1  0.60895000  0.94261000  0.56932000  1.0
  Si4+  Si74  1  0.88990831  0.44073133  0.92991590  1.0
  Si4+  Si75  1  0.39105000  0.55739000  0.06932000  1.0
  Si4+  Si76  1  0.89416370  0.94450151  0.07038114  1.0
  Si4+  Si77  1  0.39105000  0.05739000  0.93068000  1.0
  Si4+  Si78  1  0.10895000  0.55739000  0.56932000  1.0
  Si4+  Si79  1  0.60503031  0.44212852  0.42699665  1.0
  Si4+  Si80  1  0.91375000  0.19948000  0.39402000  1.0
  Si4+  Si81  1  0.41269405  0.79927181  0.60325513  1.0
  Si4+  Si82  1  0.08625000  0.30052000  0.89402000  1.0
  Si4+  Si83  1  0.58625000  0.69948000  0.10598000  1.0
  Si4+  Si84  1  0.08341104  0.80034516  0.10396860  1.0
  Si4+  Si85  1  0.58625000  0.19948000  0.89402000  1.0
  Si4+  Si86  1  0.91375000  0.69948000  0.60598000  1.0
  Si4+  Si87  1  0.41375000  0.30052000  0.39402000  1.0
  Si4+  Si88  1  0.06366204  0.18935546  0.64901495  1.0
  Si4+  Si89  1  0.56649000  0.81345000  0.35480000  1.0
  Si4+  Si90  1  0.93351000  0.31345000  0.14520000  1.0
  Si4+  Si91  1  0.43351000  0.68655000  0.85480000  1.0
  Si4+  Si92  1  0.93625377  0.81318232  0.85660451  1.0
  Si4+  Si93  1  0.43351000  0.18655000  0.14520000  1.0
  Si4+  Si94  1  0.06649000  0.68655000  0.35480000  1.0
  Si4+  Si95  1  0.56649000  0.31345000  0.64520000  1.0
  N3-  N96  1  0.94280000  0.11512000  0.70900000  1.0
  N3-  N97  1  0.44280000  0.88488000  0.29100000  1.0
  N3-  N98  1  0.05720000  0.38488000  0.20900000  1.0
  N3-  N99  1  0.55720000  0.61512000  0.79100000  1.0
  N3-  N100  1  0.05655591  0.88303321  0.79044587  1.0
  N3-  N101  1  0.56120373  0.11309042  0.21056021  1.0
  N3-  N102  1  0.94280000  0.61512000  0.29100000  1.0
  N3-  N103  1  0.44280000  0.38488000  0.70900000  1.0
  N3-  N104  1  0.73650000  0.99276000  0.66060000  1.0
  N3-  N105  1  0.23650000  0.00724000  0.33940000  1.0
  N3-  N106  1  0.26551488  0.50673639  0.16011944  1.0
  N3-  N107  1  0.76531731  0.49164474  0.83980129  1.0
  N3-  N108  1  0.26350000  0.00724000  0.83940000  1.0
  N3-  N109  1  0.76350000  0.99276000  0.16060000  1.0
  N3-  N110  1  0.73650000  0.49276000  0.33940000  1.0
  N3-  N111  1  0.23650000  0.50724000  0.66060000  1.0
  N3-  N112  1  0.03180000  0.12996000  0.31680000  1.0
  N3-  N113  1  0.53180000  0.87004000  0.68320000  1.0
  N3-  N114  1  0.97113960  0.36813617  0.82107747  1.0
  N3-  N115  1  0.46887447  0.62971447  0.18754957  1.0
  N3-  N116  1  0.96820000  0.87004000  0.18320000  1.0
  N3-  N117  1  0.46820000  0.12996000  0.81680000  1.0
  N3-  N118  1  0.03180000  0.62996000  0.68320000  1.0
  N3-  N119  1  0.53127604  0.36874452  0.31690011  1.0
  N3-  N120  1  0.16110000  0.23275000  0.77480000  1.0
  N3-  N121  1  0.66110000  0.76725000  0.22520000  1.0
  N3-  N122  1  0.83932455  0.26818166  0.27866027  1.0
  N3-  N123  1  0.33890000  0.73275000  0.72520000  1.0
  N3-  N124  1  0.83890000  0.76725000  0.72520000  1.0
  N3-  N125  1  0.33890000  0.23275000  0.27480000  1.0
  N3-  N126  1  0.16110000  0.73275000  0.22520000  1.0
  N3-  N127  1  0.66110000  0.26725000  0.77480000  1.0
  N3-  N128  1  0.18617283  0.12331319  0.55838642  1.0
  N3-  N129  1  0.68574338  0.87925626  0.44075226  1.0
  N3-  N130  1  0.81610000  0.37826000  0.05720000  1.0
  N3-  N131  1  0.31610000  0.62174000  0.94280000  1.0
  N3-  N132  1  0.81610000  0.87826000  0.94280000  1.0
  N3-  N133  1  0.31610000  0.12174000  0.05720000  1.0
  N3-  N134  1  0.18390000  0.62174000  0.44280000  1.0
  N3-  N135  1  0.68390000  0.37826000  0.55720000  1.0
  N3-  N136  1  0.79078392  0.13537909  0.47120734  1.0
  N3-  N137  1  0.28950000  0.86723000  0.53130000  1.0
  N3-  N138  1  0.21050000  0.36723000  0.96870000  1.0
  N3-  N139  1  0.71050000  0.63277000  0.03130000  1.0
  N3-  N140  1  0.21050000  0.86723000  0.03130000  1.0
  N3-  N141  1  0.71050000  0.13277000  0.96870000  1.0
  N3-  N142  1  0.78950000  0.63277000  0.53130000  1.0
  N3-  N143  1  0.28950000  0.36723000  0.46870000  1.0
  N3-  N144  1  0.99330000  0.26136000  0.52510000  1.0
  N3-  N145  1  0.49330000  0.73864000  0.47490000  1.0
  N3-  N146  1  0.00564163  0.24293019  0.02550342  1.0
  N3-  N147  1  0.50670000  0.76136000  0.97490000  1.0
  N3-  N148  1  0.00725854  0.73776653  0.97348057  1.0
  N3-  N149  1  0.50670000  0.26136000  0.02510000  1.0
  N3-  N150  1  0.99330000  0.76136000  0.47490000  1.0
  N3-  N151  1  0.49330000  0.23864000  0.52510000  1.0
  N3-  N152  1  0.98360000  0.98796000  0.50000000  1.0
  N3-  N153  1  0.48858906  0.01280548  0.50056165  1.0
  N3-  N154  1  0.01640000  0.51204000  0.00000000  1.0
  N3-  N155  1  0.51640000  0.48796000  0.00000000  1.0
  N3-  N156  1  0.01640000  0.01204000  0.00000000  1.0
  N3-  N157  1  0.51640000  0.98796000  0.00000000  1.0
  N3-  N158  1  0.98360000  0.48796000  0.50000000  1.0
  N3-  N159  1  0.48360000  0.51204000  0.50000000  1.0
