# generated using pymatgen
data_Li2SiN2
_symmetry_space_group_name_H-M   'P 1'
_cell_length_a   9.87603167
_cell_length_b   9.87603167
_cell_length_c   14.96706767
_cell_angle_alpha   90.00000000
_cell_angle_beta   90.00000000
_cell_angle_gamma   90.00000000
_symmetry_Int_Tables_number   1
_chemical_formula_structural   Li2SiN2
_chemical_formula_sum   'Li64 Si32 N64'
_cell_volume   1459.82793541
_cell_formula_units_Z   32
loop_
 _symmetry_equiv_pos_site_id
 _symmetry_equiv_pos_as_xyz
  1  'x, y, z'
loop_
 _atom_type_symbol
 _atom_type_oxidation_number
  Li+  1.0
  Si4+  4.0
  N3-  -3.0
loop_
 _atom_site_type_symbol
 _atom_site_label
 _atom_site_symmetry_multiplicity
 _atom_site_fract_x
 _atom_site_fract_y
 _atom_site_fract_z
 _atom_site_occupancy
  Li+  Li0  1  0.15200000  0.76746667  0.87750000  1.0
  Li+  Li1  1  0.34800000  0.26746667  0.12250000  1.0
  Li+  Li2  1  0.65200000  0.56586667  0.62250000  1.0
  Li+  Li3  1  0.84800000  0.06586667  0.37750000  1.0
  Li+  Li4  1  0.84800000  0.56586667  0.12250000  1.0
  Li+  Li5  1  0.65200000  0.06586667  0.87750000  1.0
  Li+  Li6  1  0.34800000  0.76746667  0.37750000  1.0
  Li+  Li7  1  0.15200000  0.26746667  0.62250000  1.0
  Li+  Li8  1  0.93870000  0.56336667  0.97900000  1.0
  Li+  Li9  1  0.56130000  0.06336667  0.02100000  1.0
  Li+  Li10  1  0.43870000  0.76996667  0.52100000  1.0
  Li+  Li11  1  0.06130000  0.26996667  0.47900000  1.0
  Li+  Li12  1  0.06130000  0.76996667  0.02100000  1.0
  Li+  Li13  1  0.43870000  0.26996667  0.97900000  1.0
  Li+  Li14  1  0.56130000  0.56336667  0.47900000  1.0
  Li+  Li15  1  0.93870000  0.06336667  0.52100000  1.0
  Li+  Li16  1  0.16160000  0.33886667  0.77180000  1.0
  Li+  Li17  1  0.33840000  0.83886667  0.22820000  1.0
  Li+  Li18  1  0.66160000  0.99446667  0.72820000  1.0
  Li+  Li19  1  0.83840000  0.49446667  0.27180000  1.0
  Li+  Li20  1  0.83840000  0.99446667  0.22820000  1.0
  Li+  Li21  1  0.66160000  0.49446667  0.77180000  1.0
  Li+  Li22  1  0.33840000  0.33886667  0.27180000  1.0
  Li+  Li23  1  0.16160000  0.83886667  0.72820000  1.0
  Li+  Li24  1  0.07750000  0.03016667  0.96280000  1.0
  Li+  Li25  1  0.42250000  0.53016667  0.03720000  1.0
  Li+  Li26  1  0.57750000  0.30316667  0.53720000  1.0
  Li+  Li27  1  0.92250000  0.80316667  0.46280000  1.0
  Li+  Li28  1  0.92250000  0.30316667  0.03720000  1.0
  Li+  Li29  1  0.57750000  0.80316667  0.96280000  1.0
  Li+  Li30  1  0.42250000  0.03016667  0.46280000  1.0
  Li+  Li31  1  0.07750000  0.53016667  0.53720000  1.0
  Li+  Li32  1  0.70400000  0.30466667  0.87860000  1.0
  Li+  Li33  1  0.79600000  0.80466667  0.12140000  1.0
  Li+  Li34  1  0.20400000  0.02866667  0.62140000  1.0
  Li+  Li35  1  0.29600000  0.52866667  0.37860000  1.0
  Li+  Li36  1  0.29600000  0.02866667  0.12140000  1.0
  Li+  Li37  1  0.20400000  0.52866667  0.87860000  1.0
  Li+  Li38  1  0.79600000  0.30466667  0.37860000  1.0
  Li+  Li39  1  0.70400000  0.80466667  0.62140000  1.0
  Li+  Li40  1  0.89380000  0.35786667  0.71600000  1.0
  Li+  Li41  1  0.60620000  0.85786667  0.28400000  1.0
  Li+  Li42  1  0.39380000  0.97546667  0.78400000  1.0
  Li+  Li43  1  0.10620000  0.47546667  0.21600000  1.0
  Li+  Li44  1  0.10620000  0.97546667  0.28400000  1.0
  Li+  Li45  1  0.39380000  0.47546667  0.71600000  1.0
  Li+  Li46  1  0.60620000  0.35786667  0.21600000  1.0
  Li+  Li47  1  0.89380000  0.85786667  0.78400000  1.0
  Li+  Li48  1  0.97170000  0.37456667  0.87530000  1.0
  Li+  Li49  1  0.52830000  0.87456667  0.12470000  1.0
  Li+  Li50  1  0.47170000  0.95876667  0.62470000  1.0
  Li+  Li51  1  0.02830000  0.45876667  0.37530000  1.0
  Li+  Li52  1  0.02830000  0.95876667  0.12470000  1.0
  Li+  Li53  1  0.47170000  0.45876667  0.87530000  1.0
  Li+  Li54  1  0.52830000  0.37456667  0.37530000  1.0
  Li+  Li55  1  0.97170000  0.87456667  0.62470000  1.0
  Li+  Li56  1  0.38080000  0.71006667  0.87340000  1.0
  Li+  Li57  1  0.11920000  0.21006667  0.12660000  1.0
  Li+  Li58  1  0.88080000  0.62326667  0.62660000  1.0
  Li+  Li59  1  0.61920000  0.12326667  0.37340000  1.0
  Li+  Li60  1  0.61920000  0.62326667  0.12660000  1.0
  Li+  Li61  1  0.88080000  0.12326667  0.87340000  1.0
  Li+  Li62  1  0.11920000  0.71006667  0.37340000  1.0
  Li+  Li63  1  0.38080000  0.21006667  0.62660000  1.0
  Si4+  Si64  1  0.83286000  0.80826667  0.94331000  1.0
  Si4+  Si65  1  0.66714000  0.30826667  0.05669000  1.0
  Si4+  Si66  1  0.33286000  0.52506667  0.55669000  1.0
  Si4+  Si67  1  0.16714000  0.02506667  0.44331000  1.0
  Si4+  Si68  1  0.16714000  0.52506667  0.05669000  1.0
  Si4+  Si69  1  0.33286000  0.02506667  0.94331000  1.0
  Si4+  Si70  1  0.66714000  0.80826667  0.44331000  1.0
  Si4+  Si71  1  0.83286000  0.30826667  0.55669000  1.0
  Si4+  Si72  1  0.68068000  0.55771667  0.94261000  1.0
  Si4+  Si73  1  0.81932000  0.05771667  0.05739000  1.0
  Si4+  Si74  1  0.18068000  0.77561667  0.55739000  1.0
  Si4+  Si75  1  0.31932000  0.27561667  0.44261000  1.0
  Si4+  Si76  1  0.31932000  0.77561667  0.05739000  1.0
  Si4+  Si77  1  0.18068000  0.27561667  0.94261000  1.0
  Si4+  Si78  1  0.81932000  0.55771667  0.44261000  1.0
  Si4+  Si79  1  0.68068000  0.05771667  0.55739000  1.0
  Si4+  Si80  1  0.64402000  0.75291667  0.80052000  1.0
  Si4+  Si81  1  0.85598000  0.25291667  0.19948000  1.0
  Si4+  Si82  1  0.14402000  0.58041667  0.69948000  1.0
  Si4+  Si83  1  0.35598000  0.08041667  0.30052000  1.0
  Si4+  Si84  1  0.35598000  0.58041667  0.19948000  1.0
  Si4+  Si85  1  0.14402000  0.08041667  0.80052000  1.0
  Si4+  Si86  1  0.85598000  0.75291667  0.30052000  1.0
  Si4+  Si87  1  0.64402000  0.25291667  0.69948000  1.0
  Si4+  Si88  1  0.89520000  0.60017667  0.81345000  1.0
  Si4+  Si89  1  0.60480000  0.10017667  0.18655000  1.0
  Si4+  Si90  1  0.39520000  0.73315667  0.68655000  1.0
  Si4+  Si91  1  0.10480000  0.23315667  0.31345000  1.0
  Si4+  Si92  1  0.10480000  0.73315667  0.18655000  1.0
  Si4+  Si93  1  0.39520000  0.23315667  0.81345000  1.0
  Si4+  Si94  1  0.60480000  0.60017667  0.31345000  1.0
  Si4+  Si95  1  0.89520000  0.10017667  0.68655000  1.0
  N3-  N96  1  0.95900000  0.72386667  0.88488000  1.0
  N3-  N97  1  0.54100000  0.22386667  0.11512000  1.0
  N3-  N98  1  0.45900000  0.60946667  0.61512000  1.0
  N3-  N99  1  0.04100000  0.10946667  0.38488000  1.0
  N3-  N100  1  0.04100000  0.60946667  0.11512000  1.0
  N3-  N101  1  0.45900000  0.10946667  0.88488000  1.0
  N3-  N102  1  0.54100000  0.72386667  0.38488000  1.0
  N3-  N103  1  0.95900000  0.22386667  0.61512000  1.0
  N3-  N104  1  0.91060000  0.93016667  0.00724000  1.0
  N3-  N105  1  0.58940000  0.43016667  0.99276000  1.0
  N3-  N106  1  0.41060000  0.40316667  0.49276000  1.0
  N3-  N107  1  0.08940000  0.90316667  0.50724000  1.0
  N3-  N108  1  0.08940000  0.40316667  0.99276000  1.0
  N3-  N109  1  0.41060000  0.90316667  0.00724000  1.0
  N3-  N110  1  0.58940000  0.93016667  0.50724000  1.0
  N3-  N111  1  0.91060000  0.43016667  0.49276000  1.0
  N3-  N112  1  0.56680000  0.63486667  0.87004000  1.0
  N3-  N113  1  0.93320000  0.13486667  0.12996000  1.0
  N3-  N114  1  0.06680000  0.69846667  0.62996000  1.0
  N3-  N115  1  0.43320000  0.19846667  0.37004000  1.0
  N3-  N116  1  0.43320000  0.69846667  0.12996000  1.0
  N3-  N117  1  0.06680000  0.19846667  0.87004000  1.0
  N3-  N118  1  0.93320000  0.63486667  0.37004000  1.0
  N3-  N119  1  0.56680000  0.13486667  0.62996000  1.0
  N3-  N120  1  0.02480000  0.50556667  0.76725000  1.0
  N3-  N121  1  0.47520000  0.00556667  0.23275000  1.0
  N3-  N122  1  0.52480000  0.82776667  0.73275000  1.0
  N3-  N123  1  0.97520000  0.32776667  0.26725000  1.0
  N3-  N124  1  0.97520000  0.82776667  0.23275000  1.0
  N3-  N125  1  0.52480000  0.32776667  0.76725000  1.0
  N3-  N126  1  0.47520000  0.50556667  0.26725000  1.0
  N3-  N127  1  0.02480000  0.00556667  0.73275000  1.0
  N3-  N128  1  0.80720000  0.48276667  0.87826000  1.0
  N3-  N129  1  0.69280000  0.98276667  0.12174000  1.0
  N3-  N130  1  0.30720000  0.85056667  0.62174000  1.0
  N3-  N131  1  0.19280000  0.35056667  0.37826000  1.0
  N3-  N132  1  0.19280000  0.85056667  0.12174000  1.0
  N3-  N133  1  0.30720000  0.35056667  0.87826000  1.0
  N3-  N134  1  0.69280000  0.48276667  0.37826000  1.0
  N3-  N135  1  0.80720000  0.98276667  0.62174000  1.0
  N3-  N136  1  0.71870000  0.87716667  0.86723000  1.0
  N3-  N137  1  0.78130000  0.37716667  0.13277000  1.0
  N3-  N138  1  0.21870000  0.45616667  0.63277000  1.0
  N3-  N139  1  0.28130000  0.95616667  0.36723000  1.0
  N3-  N140  1  0.28130000  0.45616667  0.13277000  1.0
  N3-  N141  1  0.21870000  0.95616667  0.86723000  1.0
  N3-  N142  1  0.78130000  0.87716667  0.36723000  1.0
  N3-  N143  1  0.71870000  0.37716667  0.63277000  1.0
  N3-  N144  1  0.77510000  0.67336667  0.73864000  1.0
  N3-  N145  1  0.72490000  0.17336667  0.26136000  1.0
  N3-  N146  1  0.27510000  0.65996667  0.76136000  1.0
  N3-  N147  1  0.22490000  0.15996667  0.23864000  1.0
  N3-  N148  1  0.22490000  0.65996667  0.26136000  1.0
  N3-  N149  1  0.27510000  0.15996667  0.73864000  1.0
  N3-  N150  1  0.72490000  0.67336667  0.23864000  1.0
  N3-  N151  1  0.77510000  0.17336667  0.76136000  1.0
  N3-  N152  1  0.75000000  0.68306667  0.01204000  1.0
  N3-  N153  1  0.75000000  0.18306667  0.98796000  1.0
  N3-  N154  1  0.25000000  0.65026667  0.48796000  1.0
  N3-  N155  1  0.25000000  0.15026667  0.51204000  1.0
  N3-  N156  1  0.25000000  0.65026667  0.98796000  1.0
  N3-  N157  1  0.25000000  0.15026667  0.01204000  1.0
  N3-  N158  1  0.75000000  0.68306667  0.51204000  1.0
  N3-  N159  1  0.75000000  0.18306667  0.48796000  1.0
