# generated using pymatgen
data_Li2SiN2
_symmetry_space_group_name_H-M   'P 1'
_cell_length_a   9.90700000
_cell_length_b   9.90700000
_cell_length_c   15.01400000
_cell_angle_alpha   90.00000000
_cell_angle_beta   90.00000000
_cell_angle_gamma   90.00000000
_symmetry_Int_Tables_number   1
_chemical_formula_structural   Li2SiN2
_chemical_formula_sum   'Li64 Si32 N64'
_cell_volume   1473.60381609
_cell_formula_units_Z   32
loop_
 _symmetry_equiv_pos_site_id
 _symmetry_equiv_pos_as_xyz
  1  'x, y, z'
loop_
 _atom_type_symbol
 _atom_type_oxidation_number
  Li+  1.0
  Si4+  4.0
  N3-  -3.0
loop_
 _atom_site_type_symbol
 _atom_site_label
 _atom_site_symmetry_multiplicity
 _atom_site_fract_x
 _atom_site_fract_y
 _atom_site_fract_z
 _atom_site_occupancy
  Li+  Li1  1  0.89920000  0.84800000  0.87750000  1.0
  Li+  Li1  1  0.39920000  0.65200000  0.12250000  1.0
  Li+  Li1  1  0.10080000  0.34800000  0.62250000  1.0
  Li+  Li1  1  0.60080000  0.15200000  0.37750000  1.0
  Li+  Li1  1  0.10080000  0.15200000  0.12250000  1.0
  Li+  Li1  1  0.60080000  0.34800000  0.87750000  1.0
  Li+  Li1  1  0.89920000  0.65200000  0.37750000  1.0
  Li+  Li1  1  0.39920000  0.84800000  0.62250000  1.0
  Li+  Li2  1  0.10330000  0.06130000  0.97900000  1.0
  Li+  Li2  1  0.60330000  0.43870000  0.02100000  1.0
  Li+  Li2  1  0.89670000  0.56130000  0.52100000  1.0
  Li+  Li2  1  0.39670000  0.93870000  0.47900000  1.0
  Li+  Li2  1  0.89670000  0.93870000  0.02100000  1.0
  Li+  Li2  1  0.39670000  0.56130000  0.97900000  1.0
  Li+  Li2  1  0.10330000  0.43870000  0.47900000  1.0
  Li+  Li2  1  0.60330000  0.06130000  0.52100000  1.0
  Li+  Li3  1  0.32780000  0.83840000  0.77180000  1.0
  Li+  Li3  1  0.82780000  0.66160000  0.22820000  1.0
  Li+  Li3  1  0.67220000  0.33840000  0.72820000  1.0
  Li+  Li3  1  0.17220000  0.16160000  0.27180000  1.0
  Li+  Li3  1  0.67220000  0.16160000  0.22820000  1.0
  Li+  Li3  1  0.17220000  0.33840000  0.77180000  1.0
  Li+  Li3  1  0.32780000  0.66160000  0.27180000  1.0
  Li+  Li3  1  0.82780000  0.83840000  0.72820000  1.0
  Li+  Li4  1  0.63650000  0.92250000  0.96280000  1.0
  Li+  Li4  1  0.13650000  0.57750000  0.03720000  1.0
  Li+  Li4  1  0.36350000  0.42250000  0.53720000  1.0
  Li+  Li4  1  0.86350000  0.07750000  0.46280000  1.0
  Li+  Li4  1  0.36350000  0.07750000  0.03720000  1.0
  Li+  Li4  1  0.86350000  0.42250000  0.96280000  1.0
  Li+  Li4  1  0.63650000  0.57750000  0.46280000  1.0
  Li+  Li4  1  0.13650000  0.92250000  0.53720000  1.0
  Li+  Li5  1  0.36200000  0.29600000  0.87860000  1.0
  Li+  Li5  1  0.86200000  0.20400000  0.12140000  1.0
  Li+  Li5  1  0.63800000  0.79600000  0.62140000  1.0
  Li+  Li5  1  0.13800000  0.70400000  0.37860000  1.0
  Li+  Li5  1  0.63800000  0.70400000  0.12140000  1.0
  Li+  Li5  1  0.13800000  0.79600000  0.87860000  1.0
  Li+  Li5  1  0.36200000  0.20400000  0.37860000  1.0
  Li+  Li5  1  0.86200000  0.29600000  0.62140000  1.0
  Li+  Li6  1  0.30880000  0.10620000  0.71600000  1.0
  Li+  Li6  1  0.80880000  0.39380000  0.28400000  1.0
  Li+  Li6  1  0.69120000  0.60620000  0.78400000  1.0
  Li+  Li6  1  0.19120000  0.89380000  0.21600000  1.0
  Li+  Li6  1  0.69120000  0.89380000  0.28400000  1.0
  Li+  Li6  1  0.19120000  0.60620000  0.71600000  1.0
  Li+  Li6  1  0.30880000  0.39380000  0.21600000  1.0
  Li+  Li6  1  0.80880000  0.10620000  0.78400000  1.0
  Li+  Li7  1  0.29210000  0.02830000  0.87530000  1.0
  Li+  Li7  1  0.79210000  0.47170000  0.12470000  1.0
  Li+  Li7  1  0.70790000  0.52830000  0.62470000  1.0
  Li+  Li7  1  0.20790000  0.97170000  0.37530000  1.0
  Li+  Li7  1  0.70790000  0.97170000  0.12470000  1.0
  Li+  Li7  1  0.20790000  0.52830000  0.87530000  1.0
  Li+  Li7  1  0.29210000  0.47170000  0.37530000  1.0
  Li+  Li7  1  0.79210000  0.02830000  0.62470000  1.0
  Li+  Li8  1  0.95660000  0.61920000  0.87340000  1.0
  Li+  Li8  1  0.45660000  0.88080000  0.12660000  1.0
  Li+  Li8  1  0.04340000  0.11920000  0.62660000  1.0
  Li+  Li8  1  0.54340000  0.38080000  0.37340000  1.0
  Li+  Li8  1  0.04340000  0.38080000  0.12660000  1.0
  Li+  Li8  1  0.54340000  0.11920000  0.87340000  1.0
  Li+  Li8  1  0.95660000  0.88080000  0.37340000  1.0
  Li+  Li8  1  0.45660000  0.61920000  0.62660000  1.0
  Si4+  Si1  1  0.85840000  0.16714000  0.94331000  1.0
  Si4+  Si1  1  0.35840000  0.33286000  0.05669000  1.0
  Si4+  Si1  1  0.14160000  0.66714000  0.55669000  1.0
  Si4+  Si1  1  0.64160000  0.83286000  0.44331000  1.0
  Si4+  Si1  1  0.14160000  0.83286000  0.05669000  1.0
  Si4+  Si1  1  0.64160000  0.66714000  0.94331000  1.0
  Si4+  Si1  1  0.85840000  0.33286000  0.44331000  1.0
  Si4+  Si1  1  0.35840000  0.16714000  0.55669000  1.0
  Si4+  Si2  1  0.10895000  0.31932000  0.94261000  1.0
  Si4+  Si2  1  0.60895000  0.18068000  0.05739000  1.0
  Si4+  Si2  1  0.89105000  0.81932000  0.55739000  1.0
  Si4+  Si2  1  0.39105000  0.68068000  0.44261000  1.0
  Si4+  Si2  1  0.89105000  0.68068000  0.05739000  1.0
  Si4+  Si2  1  0.39105000  0.81932000  0.94261000  1.0
  Si4+  Si2  1  0.10895000  0.18068000  0.44261000  1.0
  Si4+  Si2  1  0.60895000  0.31932000  0.55739000  1.0
  Si4+  Si3  1  0.91375000  0.35598000  0.80052000  1.0
  Si4+  Si3  1  0.41375000  0.14402000  0.19948000  1.0
  Si4+  Si3  1  0.08625000  0.85598000  0.69948000  1.0
  Si4+  Si3  1  0.58625000  0.64402000  0.30052000  1.0
  Si4+  Si3  1  0.08625000  0.64402000  0.19948000  1.0
  Si4+  Si3  1  0.58625000  0.85598000  0.80052000  1.0
  Si4+  Si3  1  0.91375000  0.14402000  0.30052000  1.0
  Si4+  Si3  1  0.41375000  0.35598000  0.69948000  1.0
  Si4+  Si4  1  0.06649000  0.10480000  0.81345000  1.0
  Si4+  Si4  1  0.56649000  0.39520000  0.18655000  1.0
  Si4+  Si4  1  0.93351000  0.60480000  0.68655000  1.0
  Si4+  Si4  1  0.43351000  0.89520000  0.31345000  1.0
  Si4+  Si4  1  0.93351000  0.89520000  0.18655000  1.0
  Si4+  Si4  1  0.43351000  0.60480000  0.81345000  1.0
  Si4+  Si4  1  0.06649000  0.39520000  0.31345000  1.0
  Si4+  Si4  1  0.56649000  0.10480000  0.68655000  1.0
  N3-  N1  1  0.94280000  0.04100000  0.88488000  1.0
  N3-  N1  1  0.44280000  0.45900000  0.11512000  1.0
  N3-  N1  1  0.05720000  0.54100000  0.61512000  1.0
  N3-  N1  1  0.55720000  0.95900000  0.38488000  1.0
  N3-  N1  1  0.05720000  0.95900000  0.11512000  1.0
  N3-  N1  1  0.55720000  0.54100000  0.88488000  1.0
  N3-  N1  1  0.94280000  0.45900000  0.38488000  1.0
  N3-  N1  1  0.44280000  0.04100000  0.61512000  1.0
  N3-  N2  1  0.73650000  0.08940000  0.00724000  1.0
  N3-  N2  1  0.23650000  0.41060000  0.99276000  1.0
  N3-  N2  1  0.26350000  0.58940000  0.49276000  1.0
  N3-  N2  1  0.76350000  0.91060000  0.50724000  1.0
  N3-  N2  1  0.26350000  0.91060000  0.99276000  1.0
  N3-  N2  1  0.76350000  0.58940000  0.00724000  1.0
  N3-  N2  1  0.73650000  0.41060000  0.50724000  1.0
  N3-  N2  1  0.23650000  0.08940000  0.49276000  1.0
  N3-  N3  1  0.03180000  0.43320000  0.87004000  1.0
  N3-  N3  1  0.53180000  0.06680000  0.12996000  1.0
  N3-  N3  1  0.96820000  0.93320000  0.62996000  1.0
  N3-  N3  1  0.46820000  0.56680000  0.37004000  1.0
  N3-  N3  1  0.96820000  0.56680000  0.12996000  1.0
  N3-  N3  1  0.46820000  0.93320000  0.87004000  1.0
  N3-  N3  1  0.03180000  0.06680000  0.37004000  1.0
  N3-  N3  1  0.53180000  0.43320000  0.62996000  1.0
  N3-  N4  1  0.16110000  0.97520000  0.76725000  1.0
  N3-  N4  1  0.66110000  0.52480000  0.23275000  1.0
  N3-  N4  1  0.83890000  0.47520000  0.73275000  1.0
  N3-  N4  1  0.33890000  0.02480000  0.26725000  1.0
  N3-  N4  1  0.83890000  0.02480000  0.23275000  1.0
  N3-  N4  1  0.33890000  0.47520000  0.76725000  1.0
  N3-  N4  1  0.16110000  0.52480000  0.26725000  1.0
  N3-  N4  1  0.66110000  0.97520000  0.73275000  1.0
  N3-  N5  1  0.18390000  0.19280000  0.87826000  1.0
  N3-  N5  1  0.68390000  0.30720000  0.12174000  1.0
  N3-  N5  1  0.81610000  0.69280000  0.62174000  1.0
  N3-  N5  1  0.31610000  0.80720000  0.37826000  1.0
  N3-  N5  1  0.81610000  0.80720000  0.12174000  1.0
  N3-  N5  1  0.31610000  0.69280000  0.87826000  1.0
  N3-  N5  1  0.18390000  0.30720000  0.37826000  1.0
  N3-  N5  1  0.68390000  0.19280000  0.62174000  1.0
  N3-  N6  1  0.78950000  0.28130000  0.86723000  1.0
  N3-  N6  1  0.28950000  0.21870000  0.13277000  1.0
  N3-  N6  1  0.21050000  0.78130000  0.63277000  1.0
  N3-  N6  1  0.71050000  0.71870000  0.36723000  1.0
  N3-  N6  1  0.21050000  0.71870000  0.13277000  1.0
  N3-  N6  1  0.71050000  0.78130000  0.86723000  1.0
  N3-  N6  1  0.78950000  0.21870000  0.36723000  1.0
  N3-  N6  1  0.28950000  0.28130000  0.63277000  1.0
  N3-  N7  1  0.99330000  0.22490000  0.73864000  1.0
  N3-  N7  1  0.49330000  0.27510000  0.26136000  1.0
  N3-  N7  1  0.00670000  0.72490000  0.76136000  1.0
  N3-  N7  1  0.50670000  0.77510000  0.23864000  1.0
  N3-  N7  1  0.00670000  0.77510000  0.26136000  1.0
  N3-  N7  1  0.50670000  0.72490000  0.73864000  1.0
  N3-  N7  1  0.99330000  0.27510000  0.23864000  1.0
  N3-  N7  1  0.49330000  0.22490000  0.76136000  1.0
  N3-  N8  1  0.98360000  0.25000000  0.01204000  1.0
  N3-  N8  1  0.48360000  0.25000000  0.98796000  1.0
  N3-  N8  1  0.01640000  0.75000000  0.48796000  1.0
  N3-  N8  1  0.51640000  0.75000000  0.51204000  1.0
  N3-  N8  1  0.01640000  0.75000000  0.98796000  1.0
  N3-  N8  1  0.51640000  0.75000000  0.01204000  1.0
  N3-  N8  1  0.98360000  0.25000000  0.51204000  1.0
  N3-  N8  1  0.48360000  0.25000000  0.48796000  1.0
