# generated using pymatgen
data_Li34Si4P(S5I)5
_symmetry_space_group_name_H-M   'P 1'
_cell_length_a   7.22997592
_cell_length_b   14.45995184
_cell_length_c   36.14987959
_cell_angle_alpha   60.00000000
_cell_angle_beta   120.00000000
_cell_angle_gamma   120.00000000
_symmetry_Int_Tables_number   1
_chemical_formula_structural   Li34Si4P(S5I)5
_chemical_formula_sum   'Li68 Si8 P2 S50 I10'
_cell_volume   2672.36364273
_cell_formula_units_Z   2
loop_
 _symmetry_equiv_pos_site_id
 _symmetry_equiv_pos_as_xyz
  1  'x, y, z'
loop_
 _atom_type_symbol
 _atom_type_oxidation_number
  Li+  1.0
  Si4+  4.0
  P5+  5.0
  S2-  -2.0
  I-  -1.0
loop_
 _atom_site_type_symbol
 _atom_site_label
 _atom_site_symmetry_multiplicity
 _atom_site_fract_x
 _atom_site_fract_y
 _atom_site_fract_z
 _atom_site_occupancy
  Li+  Li0  1  0.39678000  0.20061000  0.74955600  1.0
  Li+  Li1  1  0.39678000  0.20061000  0.34955600  1.0
  Li+  Li2  1  0.39678000  0.70061000  0.94955600  1.0
  Li+  Li3  1  0.39678000  0.20061000  0.94955600  1.0
  Li+  Li4  1  0.99817611  0.80224071  0.43219189  1.0
  Li+  Li5  1  0.00222000  0.30161000  0.43024400  1.0
  Li+  Li6  1  0.99999964  0.30287035  0.03324502  1.0
  Li+  Li7  1  0.00329340  0.80485957  0.83058653  1.0
  Li+  Li8  1  0.59878000  0.99889000  0.14955600  1.0
  Li+  Li9  1  0.59878000  0.99889000  0.94955600  1.0
  Li+  Li10  1  0.59765880  0.29897182  0.54806380  1.0
  Li+  Li11  1  0.59878000  0.30161000  0.34955600  1.0
  Li+  Li12  1  0.00222000  0.70061000  0.54955600  1.0
  Li+  Li13  1  0.00222000  0.20061000  0.54955600  1.0
  Li+  Li14  1  0.00222000  0.70061000  0.14955600  1.0
  Li+  Li15  1  0.00222000  0.20061000  0.14955600  1.0
  Li+  Li16  1  0.00222000  0.70061000  0.94955600  1.0
  Li+  Li17  1  0.00222000  0.30161000  0.74955600  1.0
  Li+  Li18  1  0.00222000  0.80161000  0.54955600  1.0
  Li+  Li19  1  0.99999705  0.80261974  0.34943408  1.0
  Li+  Li20  1  0.00222000  0.80161000  0.14955600  1.0
  Li+  Li21  1  0.00222000  0.30161000  0.14955600  1.0
  Li+  Li22  1  0.00222000  0.80161000  0.94955600  1.0
  Li+  Li23  1  0.00034103  0.30366340  0.95319340  1.0
  Li+  Li24  1  0.00222000  0.70061000  0.47064400  1.0
  Li+  Li25  1  0.00222000  0.20061000  0.27064400  1.0
  Li+  Li26  1  0.00164701  0.69831457  0.87201639  1.0
  Li+  Li27  1  0.00222000  0.20061000  0.87064400  1.0
  Li+  Li28  1  0.00222000  0.49889000  0.87064400  1.0
  Li+  Li29  1  0.39678000  0.99889000  0.74955600  1.0
  Li+  Li30  1  0.39872614  0.49631787  0.14960670  1.0
  Li+  Li31  1  0.00222000  0.49889000  0.63024400  1.0
  Li+  Li32  1  0.00222000  0.49889000  0.43024400  1.0
  Li+  Li33  1  0.00222000  0.99889000  0.23024400  1.0
  Li+  Li34  1  0.00222000  0.49889000  0.23024400  1.0
  Li+  Li35  1  0.00222000  0.49889000  0.83024400  1.0
  Li+  Li36  1  0.59878000  0.49889000  0.47064400  1.0
  Li+  Li37  1  0.59726239  0.99728830  0.06787255  1.0
  Li+  Li38  1  0.59878000  0.49889000  0.87064400  1.0
  Li+  Li39  1  0.39678000  0.99889000  0.63024400  1.0
  Li+  Li40  1  0.39678000  0.49889000  0.23024400  1.0
  Li+  Li41  1  0.39750252  0.50033206  0.03131983  1.0
  Li+  Li42  1  0.39651103  0.99806687  0.83004741  1.0
  Li+  Li43  1  0.48150000  0.75925000  0.54630000  1.0
  Li+  Li44  1  0.48217707  0.26400042  0.55031130  1.0
  Li+  Li45  1  0.48150000  0.75925000  0.34630000  1.0
  Li+  Li46  1  0.48150000  0.25925000  0.34630000  1.0
  Li+  Li47  1  0.47612587  0.76237168  0.14864487  1.0
  Li+  Li48  1  0.01850000  0.75925000  0.65370000  1.0
  Li+  Li49  1  0.01850000  0.25925000  0.65370000  1.0
  Li+  Li50  1  0.01850000  0.25925000  0.45370000  1.0
  Li+  Li51  1  0.01850000  0.75925000  0.25370000  1.0
  Li+  Li52  1  0.01850000  0.25925000  0.25370000  1.0
  Li+  Li53  1  0.02000657  0.75740488  0.05011668  1.0
  Li+  Li54  1  0.01850000  0.25925000  0.85370000  1.0
  Li+  Li55  1  0.48150000  0.49075000  0.74630000  1.0
  Li+  Li56  1  0.48150000  0.49075000  0.54630000  1.0
  Li+  Li57  1  0.48231760  0.98900557  0.34576372  1.0
  Li+  Li58  1  0.48150000  0.49075000  0.34630000  1.0
  Li+  Li59  1  0.47975823  0.48989700  0.94684572  1.0
  Li+  Li60  1  0.01850000  0.75925000  0.74630000  1.0
  Li+  Li61  1  0.01850000  0.49075000  0.45370000  1.0
  Li+  Li62  1  0.01850000  0.49075000  0.25370000  1.0
  Li+  Li63  1  0.48150000  0.49075000  0.65370000  1.0
  Li+  Li64  1  0.48150000  0.49075000  0.45370000  1.0
  Li+  Li65  1  0.48150000  0.99075000  0.25370000  1.0
  Li+  Li66  1  0.48150000  0.99075000  0.05370000  1.0
  Li+  Li67  1  0.48080494  0.99233253  0.85614321  1.0
  Si4+  Si68  1  0.50259094  0.75097269  0.65002430  1.0
  Si4+  Si69  1  0.50000000  0.25000000  0.65000000  1.0
  Si4+  Si70  1  0.50000000  0.25000000  0.45000000  1.0
  Si4+  Si71  1  0.50000000  0.75000000  0.25000000  1.0
  Si4+  Si72  1  0.49820778  0.25440932  0.25301751  1.0
  Si4+  Si73  1  0.50000000  0.25000000  0.05000000  1.0
  Si4+  Si74  1  0.50000000  0.75000000  0.85000000  1.0
  Si4+  Si75  1  0.50000000  0.25000000  0.85000000  1.0
  P5+  P76  1  0.50000000  0.75000000  0.45000000  1.0
  P5+  P77  1  0.50000000  0.75000000  0.05000000  1.0
  S2-  S78  1  0.25000000  0.87500000  0.70000000  1.0
  S2-  S79  1  0.25000000  0.37500000  0.70000000  1.0
  S2-  S80  1  0.25108644  0.87418366  0.49614455  1.0
  S2-  S81  1  0.25372916  0.37557638  0.49472172  1.0
  S2-  S82  1  0.25000000  0.87500000  0.30000000  1.0
  S2-  S83  1  0.24859163  0.37258012  0.30251553  1.0
  S2-  S84  1  0.25000000  0.87500000  0.10000000  1.0
  S2-  S85  1  0.25000000  0.37500000  0.10000000  1.0
  S2-  S86  1  0.24938832  0.87391714  0.89533238  1.0
  S2-  S87  1  0.25000000  0.37500000  0.90000000  1.0
  S2-  S88  1  0.61850000  0.69075000  0.72110000  1.0
  S2-  S89  1  0.62209073  0.19488379  0.72103647  1.0
  S2-  S90  1  0.61850000  0.69075000  0.52110000  1.0
  S2-  S91  1  0.62000156  0.18994293  0.52519384  1.0
  S2-  S92  1  0.61850000  0.69075000  0.32110000  1.0
  S2-  S93  1  0.61850000  0.19075000  0.32110000  1.0
  S2-  S94  1  0.61850000  0.69075000  0.12110000  1.0
  S2-  S95  1  0.61850000  0.19075000  0.12110000  1.0
  S2-  S96  1  0.61850000  0.69075000  0.92110000  1.0
  S2-  S97  1  0.61850000  0.19075000  0.92110000  1.0
  S2-  S98  1  0.61850000  0.69075000  0.62630000  1.0
  S2-  S99  1  0.61850000  0.19075000  0.62630000  1.0
  S2-  S100  1  0.61850000  0.69075000  0.42630000  1.0
  S2-  S101  1  0.61850000  0.19075000  0.42630000  1.0
  S2-  S102  1  0.61850000  0.69075000  0.22630000  1.0
  S2-  S103  1  0.61850000  0.19075000  0.22630000  1.0
  S2-  S104  1  0.61850000  0.69075000  0.02630000  1.0
  S2-  S105  1  0.61850000  0.19075000  0.02630000  1.0
  S2-  S106  1  0.62418660  0.68859846  0.82584130  1.0
  S2-  S107  1  0.61850000  0.19075000  0.82630000  1.0
  S2-  S108  1  0.61850000  0.92775000  0.62630000  1.0
  S2-  S109  1  0.61850000  0.42775000  0.62630000  1.0
  S2-  S110  1  0.61743952  0.92638236  0.42583461  1.0
  S2-  S111  1  0.61556021  0.42981094  0.42600680  1.0
  S2-  S112  1  0.61850000  0.92775000  0.22630000  1.0
  S2-  S113  1  0.61850000  0.42775000  0.22630000  1.0
  S2-  S114  1  0.61850000  0.92775000  0.02630000  1.0
  S2-  S115  1  0.61850000  0.42775000  0.02630000  1.0
  S2-  S116  1  0.61544175  0.92589474  0.82852966  1.0
  S2-  S117  1  0.61850000  0.42775000  0.82630000  1.0
  S2-  S118  1  0.14450000  0.69075000  0.62630000  1.0
  S2-  S119  1  0.14450000  0.19075000  0.62630000  1.0
  S2-  S120  1  0.14511365  0.68777570  0.42571297  1.0
  S2-  S121  1  0.14450000  0.19075000  0.42630000  1.0
  S2-  S122  1  0.14450000  0.69075000  0.22630000  1.0
  S2-  S123  1  0.14180021  0.19014607  0.22451761  1.0
  S2-  S124  1  0.14450000  0.69075000  0.02630000  1.0
  S2-  S125  1  0.14450000  0.19075000  0.02630000  1.0
  S2-  S126  1  0.14450000  0.69075000  0.82630000  1.0
  S2-  S127  1  0.14450000  0.19075000  0.82630000  1.0
  I-  I128  1  0.00011124  0.99864719  0.75686211  1.0
  I-  I129  1  0.00000000  0.50000000  0.75000000  1.0
  I-  I130  1  0.00000000  0.00000000  0.55000000  1.0
  I-  I131  1  0.00048260  0.49532626  0.54945895  1.0
  I-  I132  1  0.00000000  0.00000000  0.35000000  1.0
  I-  I133  1  0.99878181  0.50509525  0.35404071  1.0
  I-  I134  1  0.00000000  0.00000000  0.15000000  1.0
  I-  I135  1  0.00000000  0.50000000  0.15000000  1.0
  I-  I136  1  0.00000000  0.00000000  0.95000000  1.0
  I-  I137  1  0.00000000  0.50000000  0.95000000  1.0
