# generated using pymatgen
data_Li34Si4P(S5I)5
_symmetry_space_group_name_H-M   'P 1'
_cell_length_a   7.22997592
_cell_length_b   36.14987959
_cell_length_c   14.45995184
_cell_angle_alpha   60.00000000
_cell_angle_beta   60.00000000
_cell_angle_gamma   60.00000000
_symmetry_Int_Tables_number   1
_chemical_formula_structural   Li34Si4P(S5I)5
_chemical_formula_sum   'Li68 Si8 P2 S50 I10'
_cell_volume   2672.36364273
_cell_formula_units_Z   2
loop_
 _symmetry_equiv_pos_site_id
 _symmetry_equiv_pos_as_xyz
  1  'x, y, z'
loop_
 _atom_type_symbol
 _atom_type_oxidation_number
  Li+  1.0
  Si4+  4.0
  P5+  5.0
  S2-  -2.0
  I-  -1.0
loop_
 _atom_site_type_symbol
 _atom_site_label
 _atom_site_symmetry_multiplicity
 _atom_site_fract_x
 _atom_site_fract_y
 _atom_site_fract_z
 _atom_site_occupancy
  Li+  Li0  1  0.39678000  0.00044400  0.79939000  1.0
  Li+  Li1  1  0.39678000  0.40044400  0.79939000  1.0
  Li+  Li2  1  0.39678000  0.80044400  0.29939000  1.0
  Li+  Li3  1  0.39678000  0.80044400  0.79939000  1.0
  Li+  Li4  1  0.00222000  0.31975600  0.19839000  1.0
  Li+  Li5  1  0.00222000  0.31975600  0.69839000  1.0
  Li+  Li6  1  0.00222000  0.71975600  0.69839000  1.0
  Li+  Li7  1  0.00222000  0.91975600  0.19839000  1.0
  Li+  Li8  1  0.59878000  0.60044400  0.00111000  1.0
  Li+  Li9  1  0.59878000  0.80044400  0.00111000  1.0
  Li+  Li10  1  0.59878000  0.20044400  0.69839000  1.0
  Li+  Li11  1  0.59878000  0.40044400  0.69839000  1.0
  Li+  Li12  1  0.00222000  0.20044400  0.29939000  1.0
  Li+  Li13  1  0.00222000  0.20044400  0.79939000  1.0
  Li+  Li14  1  0.00222000  0.60044400  0.29939000  1.0
  Li+  Li15  1  0.00222000  0.60044400  0.79939000  1.0
  Li+  Li16  1  0.00222000  0.80044400  0.29939000  1.0
  Li+  Li17  1  0.00222000  0.00044400  0.69839000  1.0
  Li+  Li18  1  0.00222000  0.20044400  0.19839000  1.0
  Li+  Li19  1  0.00222000  0.40044400  0.19839000  1.0
  Li+  Li20  1  0.00222000  0.60044400  0.19839000  1.0
  Li+  Li21  1  0.00222000  0.60044400  0.69839000  1.0
  Li+  Li22  1  0.00222000  0.80044400  0.19839000  1.0
  Li+  Li23  1  0.00222000  0.80044400  0.69839000  1.0
  Li+  Li24  1  0.00222000  0.27935600  0.29939000  1.0
  Li+  Li25  1  0.00222000  0.47935600  0.79939000  1.0
  Li+  Li26  1  0.00222000  0.87935600  0.29939000  1.0
  Li+  Li27  1  0.00222000  0.87935600  0.79939000  1.0
  Li+  Li28  1  0.00222000  0.87935600  0.50111000  1.0
  Li+  Li29  1  0.39678000  0.00044400  0.00111000  1.0
  Li+  Li30  1  0.39678000  0.60044400  0.50111000  1.0
  Li+  Li31  1  0.00222000  0.11975600  0.50111000  1.0
  Li+  Li32  1  0.00222000  0.31975600  0.50111000  1.0
  Li+  Li33  1  0.00222000  0.51975600  0.00111000  1.0
  Li+  Li34  1  0.00222000  0.51975600  0.50111000  1.0
  Li+  Li35  1  0.00222000  0.91975600  0.50111000  1.0
  Li+  Li36  1  0.59878000  0.27935600  0.50111000  1.0
  Li+  Li37  1  0.59878000  0.67935600  0.00111000  1.0
  Li+  Li38  1  0.59878000  0.87935600  0.50111000  1.0
  Li+  Li39  1  0.39678000  0.11975600  0.00111000  1.0
  Li+  Li40  1  0.39678000  0.51975600  0.50111000  1.0
  Li+  Li41  1  0.39678000  0.71975600  0.50111000  1.0
  Li+  Li42  1  0.39678000  0.91975600  0.00111000  1.0
  Li+  Li43  1  0.48150000  0.20370000  0.24075000  1.0
  Li+  Li44  1  0.48150000  0.20370000  0.74075000  1.0
  Li+  Li45  1  0.48150000  0.40370000  0.24075000  1.0
  Li+  Li46  1  0.48150000  0.40370000  0.74075000  1.0
  Li+  Li47  1  0.48150000  0.60370000  0.24075000  1.0
  Li+  Li48  1  0.01850000  0.09630000  0.24075000  1.0
  Li+  Li49  1  0.01850000  0.09630000  0.74075000  1.0
  Li+  Li50  1  0.01850000  0.29630000  0.74075000  1.0
  Li+  Li51  1  0.01850000  0.49630000  0.24075000  1.0
  Li+  Li52  1  0.01850000  0.49630000  0.74075000  1.0
  Li+  Li53  1  0.01850000  0.69630000  0.24075000  1.0
  Li+  Li54  1  0.01850000  0.89630000  0.74075000  1.0
  Li+  Li55  1  0.48150000  0.00370000  0.50925000  1.0
  Li+  Li56  1  0.48150000  0.20370000  0.50925000  1.0
  Li+  Li57  1  0.48150000  0.40370000  0.00925000  1.0
  Li+  Li58  1  0.48150000  0.40370000  0.50925000  1.0
  Li+  Li59  1  0.48150000  0.80370000  0.50925000  1.0
  Li+  Li60  1  0.01850000  0.00370000  0.24075000  1.0
  Li+  Li61  1  0.01850000  0.29630000  0.50925000  1.0
  Li+  Li62  1  0.01850000  0.49630000  0.50925000  1.0
  Li+  Li63  1  0.48150000  0.09630000  0.50925000  1.0
  Li+  Li64  1  0.48150000  0.29630000  0.50925000  1.0
  Li+  Li65  1  0.48150000  0.49630000  0.00925000  1.0
  Li+  Li66  1  0.48150000  0.69630000  0.00925000  1.0
  Li+  Li67  1  0.48150000  0.89630000  0.00925000  1.0
  Si4+  Si68  1  0.50000000  0.10000000  0.25000000  1.0
  Si4+  Si69  1  0.50000000  0.10000000  0.75000000  1.0
  Si4+  Si70  1  0.50000000  0.30000000  0.75000000  1.0
  Si4+  Si71  1  0.50000000  0.50000000  0.25000000  1.0
  Si4+  Si72  1  0.50000000  0.50000000  0.75000000  1.0
  Si4+  Si73  1  0.50000000  0.70000000  0.75000000  1.0
  Si4+  Si74  1  0.50000000  0.90000000  0.25000000  1.0
  Si4+  Si75  1  0.50000000  0.90000000  0.75000000  1.0
  P5+  P76  1  0.50000000  0.30000000  0.25000000  1.0
  P5+  P77  1  0.50000000  0.70000000  0.25000000  1.0
  S2-  S1  1  0.25000000  0.05000000  0.12500000  1.0
  S2-  S1  1  0.25000000  0.05000000  0.62500000  1.0
  S2-  S1  1  0.25000000  0.25000000  0.12500000  1.0
  S2-  S1  1  0.25000000  0.25000000  0.62500000  1.0
  S2-  S1  1  0.25000000  0.45000000  0.12500000  1.0
  S2-  S1  1  0.25000000  0.45000000  0.62500000  1.0
  S2-  S1  1  0.25000000  0.65000000  0.12500000  1.0
  S2-  S1  1  0.25000000  0.65000000  0.62500000  1.0
  S2-  S1  1  0.25000000  0.85000000  0.12500000  1.0
  S2-  S1  1  0.25000000  0.85000000  0.62500000  1.0
  S2-  S3  1  0.61850000  0.02890000  0.30925000  1.0
  S2-  S3  1  0.61850000  0.02890000  0.80925000  1.0
  S2-  S3  1  0.61850000  0.22890000  0.30925000  1.0
  S2-  S3  1  0.61850000  0.22890000  0.80925000  1.0
  S2-  S3  1  0.61850000  0.42890000  0.30925000  1.0
  S2-  S3  1  0.61850000  0.42890000  0.80925000  1.0
  S2-  S3  1  0.61850000  0.62890000  0.30925000  1.0
  S2-  S3  1  0.61850000  0.62890000  0.80925000  1.0
  S2-  S3  1  0.61850000  0.82890000  0.30925000  1.0
  S2-  S3  1  0.61850000  0.82890000  0.80925000  1.0
  S2-  S3  1  0.61850000  0.12370000  0.30925000  1.0
  S2-  S3  1  0.61850000  0.12370000  0.80925000  1.0
  S2-  S3  1  0.61850000  0.32370000  0.30925000  1.0
  S2-  S3  1  0.61850000  0.32370000  0.80925000  1.0
  S2-  S3  1  0.61850000  0.52370000  0.30925000  1.0
  S2-  S3  1  0.61850000  0.52370000  0.80925000  1.0
  S2-  S3  1  0.61850000  0.72370000  0.30925000  1.0
  S2-  S3  1  0.61850000  0.72370000  0.80925000  1.0
  S2-  S3  1  0.61850000  0.92370000  0.30925000  1.0
  S2-  S3  1  0.61850000  0.92370000  0.80925000  1.0
  S2-  S3  1  0.61850000  0.12370000  0.07225000  1.0
  S2-  S3  1  0.61850000  0.12370000  0.57225000  1.0
  S2-  S3  1  0.61850000  0.32370000  0.07225000  1.0
  S2-  S3  1  0.61850000  0.32370000  0.57225000  1.0
  S2-  S3  1  0.61850000  0.52370000  0.07225000  1.0
  S2-  S3  1  0.61850000  0.52370000  0.57225000  1.0
  S2-  S3  1  0.61850000  0.72370000  0.07225000  1.0
  S2-  S3  1  0.61850000  0.72370000  0.57225000  1.0
  S2-  S3  1  0.61850000  0.92370000  0.07225000  1.0
  S2-  S3  1  0.61850000  0.92370000  0.57225000  1.0
  S2-  S3  1  0.14450000  0.12370000  0.30925000  1.0
  S2-  S3  1  0.14450000  0.12370000  0.80925000  1.0
  S2-  S3  1  0.14450000  0.32370000  0.30925000  1.0
  S2-  S3  1  0.14450000  0.32370000  0.80925000  1.0
  S2-  S3  1  0.14450000  0.52370000  0.30925000  1.0
  S2-  S3  1  0.14450000  0.52370000  0.80925000  1.0
  S2-  S3  1  0.14450000  0.72370000  0.30925000  1.0
  S2-  S3  1  0.14450000  0.72370000  0.80925000  1.0
  S2-  S3  1  0.14450000  0.92370000  0.30925000  1.0
  S2-  S3  1  0.14450000  0.92370000  0.80925000  1.0
  I-  I1  1  0.00000000  0.00000000  0.00000000  1.0
  I-  I1  1  0.00000000  0.00000000  0.50000000  1.0
  I-  I1  1  0.00000000  0.20000000  0.00000000  1.0
  I-  I1  1  0.00000000  0.20000000  0.50000000  1.0
  I-  I1  1  0.00000000  0.40000000  1.00000000  1.0
  I-  I1  1  0.00000000  0.40000000  0.50000000  1.0
  I-  I1  1  0.00000000  0.60000000  0.00000000  1.0
  I-  I1  1  0.00000000  0.60000000  0.50000000  1.0
  I-  I1  1  0.00000000  0.80000000  1.00000000  1.0
  I-  I1  1  0.00000000  0.80000000  0.50000000  1.0
