# generated using pymatgen
data_LiSi2N3
_symmetry_space_group_name_H-M   'P 1'
_cell_length_a   19.10400000
_cell_length_b   10.60630944
_cell_length_c   10.60400000
_cell_angle_alpha   119.99279740
_cell_angle_beta   90.00000000
_cell_angle_gamma   90.00000000
_symmetry_Int_Tables_number   1
_chemical_formula_structural   LiSi2N3
_chemical_formula_sum   'Li32 Si64 N96'
_cell_volume   1860.88900329
_cell_formula_units_Z   32
loop_
 _symmetry_equiv_pos_site_id
 _symmetry_equiv_pos_as_xyz
  1  'x, y, z'
loop_
 _atom_type_symbol
 _atom_type_oxidation_number
  Li+  1.0
  Si4+  4.0
  N3-  -3.0
loop_
 _atom_site_type_symbol
 _atom_site_label
 _atom_site_symmetry_multiplicity
 _atom_site_fract_x
 _atom_site_fract_y
 _atom_site_fract_z
 _atom_site_occupancy
  Li+  Li0  1  0.12500000  0.00000000  0.58350000  1.0
  Li+  Li1  1  0.62500000  0.00000000  0.58350000  1.0
  Li+  Li2  1  0.12500000  0.50000000  0.58350000  1.0
  Li+  Li3  1  0.62868572  0.50121294  0.58220620  1.0
  Li+  Li4  1  0.12500000  0.00000000  0.08350000  1.0
  Li+  Li5  1  0.62500000  0.00000000  0.08350000  1.0
  Li+  Li6  1  0.12500000  0.50000000  0.08350000  1.0
  Li+  Li7  1  0.62500000  0.50000000  0.08350000  1.0
  Li+  Li8  1  0.37500000  0.00000000  0.58350000  1.0
  Li+  Li9  1  0.87500000  0.00000000  0.58350000  1.0
  Li+  Li10  1  0.37980355  0.50339811  0.58488379  1.0
  Li+  Li11  1  0.87500000  0.50000000  0.58350000  1.0
  Li+  Li12  1  0.37500000  0.00000000  0.08350000  1.0
  Li+  Li13  1  0.87679834  0.99803155  0.08468269  1.0
  Li+  Li14  1  0.37500000  0.50000000  0.08350000  1.0
  Li+  Li15  1  0.87500000  0.50000000  0.08350000  1.0
  Li+  Li16  1  0.00000000  0.00000000  0.41650000  1.0
  Li+  Li17  1  0.50000000  0.00000000  0.41650000  1.0
  Li+  Li18  1  0.00000000  0.50000000  0.41650000  1.0
  Li+  Li19  1  0.50000000  0.50000000  0.41650000  1.0
  Li+  Li20  1  0.00000000  0.00000000  0.91650000  1.0
  Li+  Li21  1  0.49668279  0.99815887  0.91963704  1.0
  Li+  Li22  1  0.00000000  0.50000000  0.91650000  1.0
  Li+  Li23  1  0.50000000  0.50000000  0.91650000  1.0
  Li+  Li24  1  0.25000000  0.00000000  0.41650000  1.0
  Li+  Li25  1  0.75000000  0.00000000  0.41650000  1.0
  Li+  Li26  1  0.25000000  0.50000000  0.41650000  1.0
  Li+  Li27  1  0.74970387  0.50080626  0.41459419  1.0
  Li+  Li28  1  0.25000000  0.00000000  0.91650000  1.0
  Li+  Li29  1  0.75000000  0.00000000  0.91650000  1.0
  Li+  Li30  1  0.25000000  0.50000000  0.91650000  1.0
  Li+  Li31  1  0.75000000  0.50000000  0.91650000  1.0
  Si4+  Si32  1  0.12900000  0.66800000  0.41700000  1.0
  Si4+  Si33  1  0.62900000  0.66800000  0.41700000  1.0
  Si4+  Si34  1  0.12900000  0.16800000  0.41700000  1.0
  Si4+  Si35  1  0.62900000  0.16800000  0.41700000  1.0
  Si4+  Si36  1  0.12900000  0.66800000  0.91700000  1.0
  Si4+  Si37  1  0.62900000  0.66800000  0.91700000  1.0
  Si4+  Si38  1  0.12900000  0.16800000  0.91700000  1.0
  Si4+  Si39  1  0.62900000  0.16800000  0.91700000  1.0
  Si4+  Si40  1  0.37900000  0.66800000  0.41700000  1.0
  Si4+  Si41  1  0.87900000  0.66800000  0.41700000  1.0
  Si4+  Si42  1  0.37900000  0.16800000  0.41700000  1.0
  Si4+  Si43  1  0.87900000  0.16800000  0.41700000  1.0
  Si4+  Si44  1  0.37900000  0.66800000  0.91700000  1.0
  Si4+  Si45  1  0.88235938  0.66631984  0.91826487  1.0
  Si4+  Si46  1  0.37900000  0.16800000  0.91700000  1.0
  Si4+  Si47  1  0.88049345  0.16987069  0.91894682  1.0
  Si4+  Si48  1  0.12900000  0.83200000  0.74900000  1.0
  Si4+  Si49  1  0.62900000  0.83200000  0.74900000  1.0
  Si4+  Si50  1  0.12900000  0.33200000  0.74900000  1.0
  Si4+  Si51  1  0.62900000  0.33200000  0.74900000  1.0
  Si4+  Si52  1  0.12900000  0.83200000  0.24900000  1.0
  Si4+  Si53  1  0.62900000  0.83200000  0.24900000  1.0
  Si4+  Si54  1  0.12900000  0.33200000  0.24900000  1.0
  Si4+  Si55  1  0.62900000  0.33200000  0.24900000  1.0
  Si4+  Si56  1  0.37748575  0.83413930  0.74939514  1.0
  Si4+  Si57  1  0.87853458  0.82968214  0.75072547  1.0
  Si4+  Si58  1  0.37900000  0.33200000  0.74900000  1.0
  Si4+  Si59  1  0.87886415  0.33179644  0.74711616  1.0
  Si4+  Si60  1  0.38013576  0.83532791  0.24872369  1.0
  Si4+  Si61  1  0.87900000  0.83200000  0.24900000  1.0
  Si4+  Si62  1  0.37900000  0.33200000  0.24900000  1.0
  Si4+  Si63  1  0.87900000  0.33200000  0.24900000  1.0
  Si4+  Si64  1  0.00400000  0.83200000  0.58300000  1.0
  Si4+  Si65  1  0.50400000  0.83200000  0.58300000  1.0
  Si4+  Si66  1  0.00629406  0.33521932  0.58291008  1.0
  Si4+  Si67  1  0.50400000  0.33200000  0.58300000  1.0
  Si4+  Si68  1  0.00686028  0.83472374  0.07995977  1.0
  Si4+  Si69  1  0.50400000  0.83200000  0.08300000  1.0
  Si4+  Si70  1  0.00400000  0.33200000  0.08300000  1.0
  Si4+  Si71  1  0.50400000  0.33200000  0.08300000  1.0
  Si4+  Si72  1  0.25400000  0.83200000  0.58300000  1.0
  Si4+  Si73  1  0.75400000  0.83200000  0.58300000  1.0
  Si4+  Si74  1  0.25400000  0.33200000  0.58300000  1.0
  Si4+  Si75  1  0.75400000  0.33200000  0.58300000  1.0
  Si4+  Si76  1  0.25400000  0.83200000  0.08300000  1.0
  Si4+  Si77  1  0.75400000  0.83200000  0.08300000  1.0
  Si4+  Si78  1  0.25225955  0.32978171  0.08359424  1.0
  Si4+  Si79  1  0.75400000  0.33200000  0.08300000  1.0
  Si4+  Si80  1  0.01038324  0.66797029  0.24900196  1.0
  Si4+  Si81  1  0.50400000  0.66800000  0.25100000  1.0
  Si4+  Si82  1  0.00400000  0.16800000  0.25100000  1.0
  Si4+  Si83  1  0.50400000  0.16800000  0.25100000  1.0
  Si4+  Si84  1  0.00400000  0.66800000  0.75100000  1.0
  Si4+  Si85  1  0.49981051  0.66650366  0.75429476  1.0
  Si4+  Si86  1  0.00400000  0.16800000  0.75100000  1.0
  Si4+  Si87  1  0.50572771  0.16621591  0.74805295  1.0
  Si4+  Si88  1  0.25540052  0.66779315  0.24967518  1.0
  Si4+  Si89  1  0.75400000  0.66800000  0.25100000  1.0
  Si4+  Si90  1  0.25400000  0.16800000  0.25100000  1.0
  Si4+  Si91  1  0.75400000  0.16800000  0.25100000  1.0
  Si4+  Si92  1  0.25400000  0.66800000  0.75100000  1.0
  Si4+  Si93  1  0.75400000  0.66800000  0.75100000  1.0
  Si4+  Si94  1  0.25400000  0.16800000  0.75100000  1.0
  Si4+  Si95  1  0.75400000  0.16800000  0.75100000  1.0
  N3-  N96  1  0.03800000  0.69200000  0.41600000  1.0
  N3-  N97  1  0.53800000  0.69200000  0.41600000  1.0
  N3-  N98  1  0.04044639  0.19103339  0.42120498  1.0
  N3-  N99  1  0.53800000  0.19200000  0.41600000  1.0
  N3-  N100  1  0.03855474  0.69443924  0.91840279  1.0
  N3-  N101  1  0.53800000  0.69200000  0.91600000  1.0
  N3-  N102  1  0.03800000  0.19200000  0.91600000  1.0
  N3-  N103  1  0.53557632  0.18913415  0.91478319  1.0
  N3-  N104  1  0.28800000  0.69200000  0.41600000  1.0
  N3-  N105  1  0.78680974  0.68868546  0.41518261  1.0
  N3-  N106  1  0.28712111  0.19218836  0.41536874  1.0
  N3-  N107  1  0.78800000  0.19200000  0.41600000  1.0
  N3-  N108  1  0.28636377  0.68737073  0.91289347  1.0
  N3-  N109  1  0.78800000  0.69200000  0.91600000  1.0
  N3-  N110  1  0.28800000  0.19200000  0.91600000  1.0
  N3-  N111  1  0.78800000  0.19200000  0.91600000  1.0
  N3-  N112  1  0.04049050  0.81028689  0.72412720  1.0
  N3-  N113  1  0.54522957  0.81368941  0.72345164  1.0
  N3-  N114  1  0.03800000  0.30800000  0.72400000  1.0
  N3-  N115  1  0.53800000  0.30800000  0.72400000  1.0
  N3-  N116  1  0.03800000  0.80800000  0.22400000  1.0
  N3-  N117  1  0.53800000  0.80800000  0.22400000  1.0
  N3-  N118  1  0.03800000  0.30800000  0.22400000  1.0
  N3-  N119  1  0.53800000  0.30800000  0.22400000  1.0
  N3-  N120  1  0.28800000  0.80800000  0.72400000  1.0
  N3-  N121  1  0.78641992  0.80867570  0.72413895  1.0
  N3-  N122  1  0.28800000  0.30800000  0.72400000  1.0
  N3-  N123  1  0.78800000  0.30800000  0.72400000  1.0
  N3-  N124  1  0.28633357  0.80432130  0.22246467  1.0
  N3-  N125  1  0.78800000  0.80800000  0.22400000  1.0
  N3-  N126  1  0.28455183  0.30762377  0.22429847  1.0
  N3-  N127  1  0.78800000  0.30800000  0.22400000  1.0
  N3-  N128  1  0.16300000  0.80800000  0.58400000  1.0
  N3-  N129  1  0.66300000  0.80800000  0.58400000  1.0
  N3-  N130  1  0.16015561  0.31151501  0.58307566  1.0
  N3-  N131  1  0.66300000  0.30800000  0.58400000  1.0
  N3-  N132  1  0.16300000  0.80800000  0.08400000  1.0
  N3-  N133  1  0.66530120  0.80461834  0.08452386  1.0
  N3-  N134  1  0.16300000  0.30800000  0.08400000  1.0
  N3-  N135  1  0.66300000  0.30800000  0.08400000  1.0
  N3-  N136  1  0.41300000  0.80800000  0.58400000  1.0
  N3-  N137  1  0.91300000  0.80800000  0.58400000  1.0
  N3-  N138  1  0.41461967  0.30977362  0.58654703  1.0
  N3-  N139  1  0.91300000  0.30800000  0.58400000  1.0
  N3-  N140  1  0.41300000  0.80800000  0.08400000  1.0
  N3-  N141  1  0.91440209  0.80542200  0.08479290  1.0
  N3-  N142  1  0.41612848  0.30912906  0.08368838  1.0
  N3-  N143  1  0.91300000  0.30800000  0.08400000  1.0
  N3-  N144  1  0.16300000  0.69200000  0.27600000  1.0
  N3-  N145  1  0.66591721  0.69263058  0.27462509  1.0
  N3-  N146  1  0.16047783  0.19357641  0.27633545  1.0
  N3-  N147  1  0.66300000  0.19200000  0.27600000  1.0
  N3-  N148  1  0.16300000  0.69200000  0.77600000  1.0
  N3-  N149  1  0.66300000  0.69200000  0.77600000  1.0
  N3-  N150  1  0.16300000  0.19200000  0.77600000  1.0
  N3-  N151  1  0.66300000  0.19200000  0.77600000  1.0
  N3-  N152  1  0.41300000  0.69200000  0.27600000  1.0
  N3-  N153  1  0.91300000  0.69200000  0.27600000  1.0
  N3-  N154  1  0.41300000  0.19200000  0.27600000  1.0
  N3-  N155  1  0.90900774  0.19310714  0.27482482  1.0
  N3-  N156  1  0.41300000  0.69200000  0.77600000  1.0
  N3-  N157  1  0.91363925  0.69166585  0.77345201  1.0
  N3-  N158  1  0.41300000  0.19200000  0.77600000  1.0
  N3-  N159  1  0.91300000  0.19200000  0.77600000  1.0
  N3-  N160  1  0.01655703  0.49996790  0.60633829  1.0
  N3-  N161  1  0.51900000  0.50000000  0.60500000  1.0
  N3-  N162  1  0.01597191  0.00493520  0.60718721  1.0
  N3-  N163  1  0.51900000  0.00000000  0.60500000  1.0
  N3-  N164  1  0.01900000  0.50000000  0.10500000  1.0
  N3-  N165  1  0.51900000  0.50000000  0.10500000  1.0
  N3-  N166  1  0.01900000  0.00000000  0.10500000  1.0
  N3-  N167  1  0.51900000  0.00000000  0.10500000  1.0
  N3-  N168  1  0.26570982  0.50023579  0.60416984  1.0
  N3-  N169  1  0.76900000  0.50000000  0.60500000  1.0
  N3-  N170  1  0.26900000  0.00000000  0.60500000  1.0
  N3-  N171  1  0.76900000  0.00000000  0.60500000  1.0
  N3-  N172  1  0.26849154  0.49787897  0.10422746  1.0
  N3-  N173  1  0.76900000  0.50000000  0.10500000  1.0
  N3-  N174  1  0.26900000  0.00000000  0.10500000  1.0
  N3-  N175  1  0.76900000  0.00000000  0.10500000  1.0
  N3-  N176  1  0.14400000  0.00000000  0.39500000  1.0
  N3-  N177  1  0.64400000  0.00000000  0.39500000  1.0
  N3-  N178  1  0.14400000  0.50000000  0.39500000  1.0
  N3-  N179  1  0.64295384  0.49982458  0.39559712  1.0
  N3-  N180  1  0.14400000  0.00000000  0.89500000  1.0
  N3-  N181  1  0.64279314  0.00404959  0.89628560  1.0
  N3-  N182  1  0.14448254  0.49951556  0.89696957  1.0
  N3-  N183  1  0.64400000  0.50000000  0.89500000  1.0
  N3-  N184  1  0.39178185  0.00006113  0.39588723  1.0
  N3-  N185  1  0.89400000  0.00000000  0.39500000  1.0
  N3-  N186  1  0.39400000  0.50000000  0.39500000  1.0
  N3-  N187  1  0.89184196  0.50013884  0.39788190  1.0
  N3-  N188  1  0.39368833  0.99611897  0.89795435  1.0
  N3-  N189  1  0.89400000  0.00000000  0.89500000  1.0
  N3-  N190  1  0.39400000  0.50000000  0.89500000  1.0
  N3-  N191  1  0.89400000  0.50000000  0.89500000  1.0
