# generated using pymatgen
data_LiSi2N3
_symmetry_space_group_name_H-M   'P 1'
_cell_length_a   10.56359840
_cell_length_b   19.03121311
_cell_length_c   10.56589904
_cell_angle_alpha   90.00000000
_cell_angle_beta   60.00720260
_cell_angle_gamma   90.00000000
_symmetry_Int_Tables_number   1
_chemical_formula_structural   LiSi2N3
_chemical_formula_sum   'Li32 Si64 N96'
_cell_volume   1839.69978922
_cell_formula_units_Z   32
loop_
 _symmetry_equiv_pos_site_id
 _symmetry_equiv_pos_as_xyz
  1  'x, y, z'
loop_
 _atom_type_symbol
 _atom_type_oxidation_number
  Li+  1.0
  Si4+  4.0
  N3-  -3.0
loop_
 _atom_site_type_symbol
 _atom_site_label
 _atom_site_symmetry_multiplicity
 _atom_site_fract_x
 _atom_site_fract_y
 _atom_site_fract_z
 _atom_site_occupancy
  Li+  Li0  1  0.83350000  0.54166667  0.00000000  1.0
  Li+  Li1  1  0.83350000  0.04166667  0.00000000  1.0
  Li+  Li2  1  0.83350000  0.54166667  0.50000000  1.0
  Li+  Li3  1  0.83350000  0.04166667  0.50000000  1.0
  Li+  Li4  1  0.33350000  0.54166667  0.00000000  1.0
  Li+  Li5  1  0.33350000  0.04166667  0.00000000  1.0
  Li+  Li6  1  0.33350000  0.54166667  0.50000000  1.0
  Li+  Li7  1  0.33350000  0.04166667  0.50000000  1.0
  Li+  Li8  1  0.83350000  0.29166667  0.00000000  1.0
  Li+  Li9  1  0.83350000  0.79166667  0.00000000  1.0
  Li+  Li10  1  0.83350000  0.29166667  0.50000000  1.0
  Li+  Li11  1  0.83350000  0.79166667  0.50000000  1.0
  Li+  Li12  1  0.33350000  0.29166667  0.00000000  1.0
  Li+  Li13  1  0.33350000  0.79166667  0.00000000  1.0
  Li+  Li14  1  0.33350000  0.29166667  0.50000000  1.0
  Li+  Li15  1  0.33350000  0.79166667  0.50000000  1.0
  Li+  Li16  1  0.66650000  0.66666667  0.00000000  1.0
  Li+  Li17  1  0.66650000  0.16666667  0.00000000  1.0
  Li+  Li18  1  0.66650000  0.66666667  0.50000000  1.0
  Li+  Li19  1  0.66650000  0.16666667  0.50000000  1.0
  Li+  Li20  1  0.16650000  0.66666667  0.00000000  1.0
  Li+  Li21  1  0.16650000  0.16666667  0.00000000  1.0
  Li+  Li22  1  0.16650000  0.66666667  0.50000000  1.0
  Li+  Li23  1  0.16650000  0.16666667  0.50000000  1.0
  Li+  Li24  1  0.66650000  0.41666667  0.00000000  1.0
  Li+  Li25  1  0.66650000  0.91666667  0.00000000  1.0
  Li+  Li26  1  0.66650000  0.41666667  0.50000000  1.0
  Li+  Li27  1  0.66650000  0.91666667  0.50000000  1.0
  Li+  Li28  1  0.16650000  0.41666667  0.00000000  1.0
  Li+  Li29  1  0.16650000  0.91666667  0.00000000  1.0
  Li+  Li30  1  0.16650000  0.41666667  0.50000000  1.0
  Li+  Li31  1  0.16650000  0.91666667  0.50000000  1.0
  Si4+  Si32  1  0.66700000  0.53766667  0.33200000  1.0
  Si4+  Si33  1  0.66700000  0.03766667  0.33200000  1.0
  Si4+  Si34  1  0.66700000  0.53766667  0.83200000  1.0
  Si4+  Si35  1  0.66700000  0.03766667  0.83200000  1.0
  Si4+  Si36  1  0.16700000  0.53766667  0.33200000  1.0
  Si4+  Si37  1  0.16700000  0.03766667  0.33200000  1.0
  Si4+  Si38  1  0.16700000  0.53766667  0.83200000  1.0
  Si4+  Si39  1  0.16700000  0.03766667  0.83200000  1.0
  Si4+  Si40  1  0.66700000  0.28766667  0.33200000  1.0
  Si4+  Si41  1  0.66700000  0.78766667  0.33200000  1.0
  Si4+  Si42  1  0.66700000  0.28766667  0.83200000  1.0
  Si4+  Si43  1  0.66700000  0.78766667  0.83200000  1.0
  Si4+  Si44  1  0.16700000  0.28766667  0.33200000  1.0
  Si4+  Si45  1  0.16700000  0.78766667  0.33200000  1.0
  Si4+  Si46  1  0.16700000  0.28766667  0.83200000  1.0
  Si4+  Si47  1  0.16700000  0.78766667  0.83200000  1.0
  Si4+  Si48  1  0.99900000  0.53766667  0.16800000  1.0
  Si4+  Si49  1  0.99900000  0.03766667  0.16800000  1.0
  Si4+  Si50  1  0.99900000  0.53766667  0.66800000  1.0
  Si4+  Si51  1  0.99900000  0.03766667  0.66800000  1.0
  Si4+  Si52  1  0.49900000  0.53766667  0.16800000  1.0
  Si4+  Si53  1  0.49900000  0.03766667  0.16800000  1.0
  Si4+  Si54  1  0.49900000  0.53766667  0.66800000  1.0
  Si4+  Si55  1  0.49900000  0.03766667  0.66800000  1.0
  Si4+  Si56  1  0.99900000  0.28766667  0.16800000  1.0
  Si4+  Si57  1  0.99900000  0.78766667  0.16800000  1.0
  Si4+  Si58  1  0.99900000  0.28766667  0.66800000  1.0
  Si4+  Si59  1  0.99900000  0.78766667  0.66800000  1.0
  Si4+  Si60  1  0.49900000  0.28766667  0.16800000  1.0
  Si4+  Si61  1  0.49900000  0.78766667  0.16800000  1.0
  Si4+  Si62  1  0.49900000  0.28766667  0.66800000  1.0
  Si4+  Si63  1  0.49900000  0.78766667  0.66800000  1.0
  Si4+  Si64  1  0.83300000  0.66266667  0.16800000  1.0
  Si4+  Si65  1  0.83300000  0.16266667  0.16800000  1.0
  Si4+  Si66  1  0.83300000  0.66266667  0.66800000  1.0
  Si4+  Si67  1  0.83300000  0.16266667  0.66800000  1.0
  Si4+  Si68  1  0.33300000  0.66266667  0.16800000  1.0
  Si4+  Si69  1  0.33300000  0.16266667  0.16800000  1.0
  Si4+  Si70  1  0.33300000  0.66266667  0.66800000  1.0
  Si4+  Si71  1  0.33300000  0.16266667  0.66800000  1.0
  Si4+  Si72  1  0.83300000  0.41266667  0.16800000  1.0
  Si4+  Si73  1  0.83300000  0.91266667  0.16800000  1.0
  Si4+  Si74  1  0.83300000  0.41266667  0.66800000  1.0
  Si4+  Si75  1  0.83300000  0.91266667  0.66800000  1.0
  Si4+  Si76  1  0.33300000  0.41266667  0.16800000  1.0
  Si4+  Si77  1  0.33300000  0.91266667  0.16800000  1.0
  Si4+  Si78  1  0.33300000  0.41266667  0.66800000  1.0
  Si4+  Si79  1  0.33300000  0.91266667  0.66800000  1.0
  Si4+  Si80  1  0.50100000  0.66266667  0.33200000  1.0
  Si4+  Si81  1  0.50100000  0.16266667  0.33200000  1.0
  Si4+  Si82  1  0.50100000  0.66266667  0.83200000  1.0
  Si4+  Si83  1  0.50100000  0.16266667  0.83200000  1.0
  Si4+  Si84  1  0.00100000  0.66266667  0.33200000  1.0
  Si4+  Si85  1  0.00100000  0.16266667  0.33200000  1.0
  Si4+  Si86  1  0.00100000  0.66266667  0.83200000  1.0
  Si4+  Si87  1  0.00100000  0.16266667  0.83200000  1.0
  Si4+  Si88  1  0.50100000  0.41266667  0.33200000  1.0
  Si4+  Si89  1  0.50100000  0.91266667  0.33200000  1.0
  Si4+  Si90  1  0.50100000  0.41266667  0.83200000  1.0
  Si4+  Si91  1  0.50100000  0.91266667  0.83200000  1.0
  Si4+  Si92  1  0.00100000  0.41266667  0.33200000  1.0
  Si4+  Si93  1  0.00100000  0.91266667  0.33200000  1.0
  Si4+  Si94  1  0.00100000  0.41266667  0.83200000  1.0
  Si4+  Si95  1  0.00100000  0.91266667  0.83200000  1.0
  N3-  N96  1  0.66600000  0.62866667  0.30800000  1.0
  N3-  N97  1  0.66600000  0.12866667  0.30800000  1.0
  N3-  N98  1  0.66600000  0.62866667  0.80800000  1.0
  N3-  N99  1  0.66600000  0.12866667  0.80800000  1.0
  N3-  N100  1  0.16600000  0.62866667  0.30800000  1.0
  N3-  N101  1  0.16600000  0.12866667  0.30800000  1.0
  N3-  N102  1  0.16600000  0.62866667  0.80800000  1.0
  N3-  N103  1  0.16600000  0.12866667  0.80800000  1.0
  N3-  N104  1  0.66600000  0.37866667  0.30800000  1.0
  N3-  N105  1  0.66600000  0.87866667  0.30800000  1.0
  N3-  N106  1  0.66600000  0.37866667  0.80800000  1.0
  N3-  N107  1  0.66600000  0.87866667  0.80800000  1.0
  N3-  N108  1  0.16600000  0.37866667  0.30800000  1.0
  N3-  N109  1  0.16600000  0.87866667  0.30800000  1.0
  N3-  N110  1  0.16600000  0.37866667  0.80800000  1.0
  N3-  N111  1  0.16600000  0.87866667  0.80800000  1.0
  N3-  N112  1  0.97400000  0.62866667  0.19200000  1.0
  N3-  N113  1  0.97400000  0.12866667  0.19200000  1.0
  N3-  N114  1  0.97400000  0.62866667  0.69200000  1.0
  N3-  N115  1  0.97400000  0.12866667  0.69200000  1.0
  N3-  N116  1  0.47400000  0.62866667  0.19200000  1.0
  N3-  N117  1  0.47400000  0.12866667  0.19200000  1.0
  N3-  N118  1  0.47400000  0.62866667  0.69200000  1.0
  N3-  N119  1  0.47400000  0.12866667  0.69200000  1.0
  N3-  N120  1  0.97400000  0.37866667  0.19200000  1.0
  N3-  N121  1  0.97400000  0.87866667  0.19200000  1.0
  N3-  N122  1  0.97400000  0.37866667  0.69200000  1.0
  N3-  N123  1  0.97400000  0.87866667  0.69200000  1.0
  N3-  N124  1  0.47400000  0.37866667  0.19200000  1.0
  N3-  N125  1  0.47400000  0.87866667  0.19200000  1.0
  N3-  N126  1  0.47400000  0.37866667  0.69200000  1.0
  N3-  N127  1  0.47400000  0.87866667  0.69200000  1.0
  N3-  N128  1  0.83400000  0.50366667  0.19200000  1.0
  N3-  N129  1  0.83400000  0.00366667  0.19200000  1.0
  N3-  N130  1  0.83400000  0.50366667  0.69200000  1.0
  N3-  N131  1  0.83400000  0.00366667  0.69200000  1.0
  N3-  N132  1  0.33400000  0.50366667  0.19200000  1.0
  N3-  N133  1  0.33400000  0.00366667  0.19200000  1.0
  N3-  N134  1  0.33400000  0.50366667  0.69200000  1.0
  N3-  N135  1  0.33400000  0.00366667  0.69200000  1.0
  N3-  N136  1  0.83400000  0.25366667  0.19200000  1.0
  N3-  N137  1  0.83400000  0.75366667  0.19200000  1.0
  N3-  N138  1  0.83400000  0.25366667  0.69200000  1.0
  N3-  N139  1  0.83400000  0.75366667  0.69200000  1.0
  N3-  N140  1  0.33400000  0.25366667  0.19200000  1.0
  N3-  N141  1  0.33400000  0.75366667  0.19200000  1.0
  N3-  N142  1  0.33400000  0.25366667  0.69200000  1.0
  N3-  N143  1  0.33400000  0.75366667  0.69200000  1.0
  N3-  N144  1  0.52600000  0.50366667  0.30800000  1.0
  N3-  N145  1  0.52600000  0.00366667  0.30800000  1.0
  N3-  N146  1  0.52600000  0.50366667  0.80800000  1.0
  N3-  N147  1  0.52600000  0.00366667  0.80800000  1.0
  N3-  N148  1  0.02600000  0.50366667  0.30800000  1.0
  N3-  N149  1  0.02600000  0.00366667  0.30800000  1.0
  N3-  N150  1  0.02600000  0.50366667  0.80800000  1.0
  N3-  N151  1  0.02600000  0.00366667  0.80800000  1.0
  N3-  N152  1  0.52600000  0.25366667  0.30800000  1.0
  N3-  N153  1  0.52600000  0.75366667  0.30800000  1.0
  N3-  N154  1  0.52600000  0.25366667  0.80800000  1.0
  N3-  N155  1  0.52600000  0.75366667  0.80800000  1.0
  N3-  N156  1  0.02600000  0.25366667  0.30800000  1.0
  N3-  N157  1  0.02600000  0.75366667  0.30800000  1.0
  N3-  N158  1  0.02600000  0.25366667  0.80800000  1.0
  N3-  N159  1  0.02600000  0.75366667  0.80800000  1.0
  N3-  N160  1  0.85500000  0.64766667  0.50000000  1.0
  N3-  N161  1  0.85500000  0.14766667  0.50000000  1.0
  N3-  N162  1  0.85500000  0.64766667  0.00000000  1.0
  N3-  N163  1  0.85500000  0.14766667  0.00000000  1.0
  N3-  N164  1  0.35500000  0.64766667  0.50000000  1.0
  N3-  N165  1  0.35500000  0.14766667  0.50000000  1.0
  N3-  N166  1  0.35500000  0.64766667  0.00000000  1.0
  N3-  N167  1  0.35500000  0.14766667  0.00000000  1.0
  N3-  N168  1  0.85500000  0.39766667  0.50000000  1.0
  N3-  N169  1  0.85500000  0.89766667  0.50000000  1.0
  N3-  N170  1  0.85500000  0.39766667  0.00000000  1.0
  N3-  N171  1  0.85500000  0.89766667  0.00000000  1.0
  N3-  N172  1  0.35500000  0.39766667  0.50000000  1.0
  N3-  N173  1  0.35500000  0.89766667  0.50000000  1.0
  N3-  N174  1  0.35500000  0.39766667  0.00000000  1.0
  N3-  N175  1  0.35500000  0.89766667  0.00000000  1.0
  N3-  N176  1  0.64500000  0.52266667  0.00000000  1.0
  N3-  N177  1  0.64500000  0.02266667  0.00000000  1.0
  N3-  N178  1  0.64500000  0.52266667  0.50000000  1.0
  N3-  N179  1  0.64500000  0.02266667  0.50000000  1.0
  N3-  N180  1  0.14500000  0.52266667  0.00000000  1.0
  N3-  N181  1  0.14500000  0.02266667  0.00000000  1.0
  N3-  N182  1  0.14500000  0.52266667  0.50000000  1.0
  N3-  N183  1  0.14500000  0.02266667  0.50000000  1.0
  N3-  N184  1  0.64500000  0.27266667  0.00000000  1.0
  N3-  N185  1  0.64500000  0.77266667  0.00000000  1.0
  N3-  N186  1  0.64500000  0.27266667  0.50000000  1.0
  N3-  N187  1  0.64500000  0.77266667  0.50000000  1.0
  N3-  N188  1  0.14500000  0.27266667  0.00000000  1.0
  N3-  N189  1  0.14500000  0.77266667  0.00000000  1.0
  N3-  N190  1  0.14500000  0.27266667  0.50000000  1.0
  N3-  N191  1  0.14500000  0.77266667  0.50000000  1.0
