# generated using pymatgen
data_LiSi2N3
_symmetry_space_group_name_H-M   'P 1'
_cell_length_a   19.10400000
_cell_length_b   10.60400000
_cell_length_c   10.60630944
_cell_angle_alpha   119.99279740
_cell_angle_beta   90.00000000
_cell_angle_gamma   90.00000000
_symmetry_Int_Tables_number   1
_chemical_formula_structural   LiSi2N3
_chemical_formula_sum   'Li32 Si64 N96'
_cell_volume   1860.88900329
_cell_formula_units_Z   32
loop_
 _symmetry_equiv_pos_site_id
 _symmetry_equiv_pos_as_xyz
  1  'x, y, z'
loop_
 _atom_type_symbol
 _atom_type_oxidation_number
  Li+  1.0
  Si4+  4.0
  N3-  -3.0
loop_
 _atom_site_type_symbol
 _atom_site_label
 _atom_site_symmetry_multiplicity
 _atom_site_fract_x
 _atom_site_fract_y
 _atom_site_fract_z
 _atom_site_occupancy
  Li+  Li1  1  0.12500000  0.16650000  0.00000000  1.0
  Li+  Li1  1  0.62500000  0.16650000  0.00000000  1.0
  Li+  Li1  1  0.12500000  0.16650000  0.50000000  1.0
  Li+  Li1  1  0.62500000  0.16650000  0.50000000  1.0
  Li+  Li1  1  0.12500000  0.66650000  0.00000000  1.0
  Li+  Li1  1  0.62500000  0.66650000  0.00000000  1.0
  Li+  Li1  1  0.12500000  0.66650000  0.50000000  1.0
  Li+  Li1  1  0.62500000  0.66650000  0.50000000  1.0
  Li+  Li1  1  0.37500000  0.16650000  0.00000000  1.0
  Li+  Li1  1  0.87500000  0.16650000  0.00000000  1.0
  Li+  Li1  1  0.37500000  0.16650000  0.50000000  1.0
  Li+  Li1  1  0.87500000  0.16650000  0.50000000  1.0
  Li+  Li1  1  0.37500000  0.66650000  0.00000000  1.0
  Li+  Li1  1  0.87500000  0.66650000  0.00000000  1.0
  Li+  Li1  1  0.37500000  0.66650000  0.50000000  1.0
  Li+  Li1  1  0.87500000  0.66650000  0.50000000  1.0
  Li+  Li1  1  0.00000000  0.33350000  0.00000000  1.0
  Li+  Li1  1  0.50000000  0.33350000  0.00000000  1.0
  Li+  Li1  1  0.00000000  0.33350000  0.50000000  1.0
  Li+  Li1  1  0.50000000  0.33350000  0.50000000  1.0
  Li+  Li1  1  0.00000000  0.83350000  0.00000000  1.0
  Li+  Li1  1  0.50000000  0.83350000  0.00000000  1.0
  Li+  Li1  1  0.00000000  0.83350000  0.50000000  1.0
  Li+  Li1  1  0.50000000  0.83350000  0.50000000  1.0
  Li+  Li1  1  0.25000000  0.33350000  0.00000000  1.0
  Li+  Li1  1  0.75000000  0.33350000  0.00000000  1.0
  Li+  Li1  1  0.25000000  0.33350000  0.50000000  1.0
  Li+  Li1  1  0.75000000  0.33350000  0.50000000  1.0
  Li+  Li1  1  0.25000000  0.83350000  0.00000000  1.0
  Li+  Li1  1  0.75000000  0.83350000  0.00000000  1.0
  Li+  Li1  1  0.25000000  0.83350000  0.50000000  1.0
  Li+  Li1  1  0.75000000  0.83350000  0.50000000  1.0
  Si4+  Si1  1  0.12900000  0.33300000  0.33200000  1.0
  Si4+  Si1  1  0.62900000  0.33300000  0.33200000  1.0
  Si4+  Si1  1  0.12900000  0.33300000  0.83200000  1.0
  Si4+  Si1  1  0.62900000  0.33300000  0.83200000  1.0
  Si4+  Si1  1  0.12900000  0.83300000  0.33200000  1.0
  Si4+  Si1  1  0.62900000  0.83300000  0.33200000  1.0
  Si4+  Si1  1  0.12900000  0.83300000  0.83200000  1.0
  Si4+  Si1  1  0.62900000  0.83300000  0.83200000  1.0
  Si4+  Si1  1  0.37900000  0.33300000  0.33200000  1.0
  Si4+  Si1  1  0.87900000  0.33300000  0.33200000  1.0
  Si4+  Si1  1  0.37900000  0.33300000  0.83200000  1.0
  Si4+  Si1  1  0.87900000  0.33300000  0.83200000  1.0
  Si4+  Si1  1  0.37900000  0.83300000  0.33200000  1.0
  Si4+  Si1  1  0.87900000  0.83300000  0.33200000  1.0
  Si4+  Si1  1  0.37900000  0.83300000  0.83200000  1.0
  Si4+  Si1  1  0.87900000  0.83300000  0.83200000  1.0
  Si4+  Si1  1  0.12900000  0.00100000  0.16800000  1.0
  Si4+  Si1  1  0.62900000  0.00100000  0.16800000  1.0
  Si4+  Si1  1  0.12900000  0.00100000  0.66800000  1.0
  Si4+  Si1  1  0.62900000  0.00100000  0.66800000  1.0
  Si4+  Si1  1  0.12900000  0.50100000  0.16800000  1.0
  Si4+  Si1  1  0.62900000  0.50100000  0.16800000  1.0
  Si4+  Si1  1  0.12900000  0.50100000  0.66800000  1.0
  Si4+  Si1  1  0.62900000  0.50100000  0.66800000  1.0
  Si4+  Si1  1  0.37900000  0.00100000  0.16800000  1.0
  Si4+  Si1  1  0.87900000  0.00100000  0.16800000  1.0
  Si4+  Si1  1  0.37900000  0.00100000  0.66800000  1.0
  Si4+  Si1  1  0.87900000  0.00100000  0.66800000  1.0
  Si4+  Si1  1  0.37900000  0.50100000  0.16800000  1.0
  Si4+  Si1  1  0.87900000  0.50100000  0.16800000  1.0
  Si4+  Si1  1  0.37900000  0.50100000  0.66800000  1.0
  Si4+  Si1  1  0.87900000  0.50100000  0.66800000  1.0
  Si4+  Si1  1  0.00400000  0.16700000  0.16800000  1.0
  Si4+  Si1  1  0.50400000  0.16700000  0.16800000  1.0
  Si4+  Si1  1  0.00400000  0.16700000  0.66800000  1.0
  Si4+  Si1  1  0.50400000  0.16700000  0.66800000  1.0
  Si4+  Si1  1  0.00400000  0.66700000  0.16800000  1.0
  Si4+  Si1  1  0.50400000  0.66700000  0.16800000  1.0
  Si4+  Si1  1  0.00400000  0.66700000  0.66800000  1.0
  Si4+  Si1  1  0.50400000  0.66700000  0.66800000  1.0
  Si4+  Si1  1  0.25400000  0.16700000  0.16800000  1.0
  Si4+  Si1  1  0.75400000  0.16700000  0.16800000  1.0
  Si4+  Si1  1  0.25400000  0.16700000  0.66800000  1.0
  Si4+  Si1  1  0.75400000  0.16700000  0.66800000  1.0
  Si4+  Si1  1  0.25400000  0.66700000  0.16800000  1.0
  Si4+  Si1  1  0.75400000  0.66700000  0.16800000  1.0
  Si4+  Si1  1  0.25400000  0.66700000  0.66800000  1.0
  Si4+  Si1  1  0.75400000  0.66700000  0.66800000  1.0
  Si4+  Si1  1  0.00400000  0.49900000  0.33200000  1.0
  Si4+  Si1  1  0.50400000  0.49900000  0.33200000  1.0
  Si4+  Si1  1  0.00400000  0.49900000  0.83200000  1.0
  Si4+  Si1  1  0.50400000  0.49900000  0.83200000  1.0
  Si4+  Si1  1  0.00400000  0.99900000  0.33200000  1.0
  Si4+  Si1  1  0.50400000  0.99900000  0.33200000  1.0
  Si4+  Si1  1  0.00400000  0.99900000  0.83200000  1.0
  Si4+  Si1  1  0.50400000  0.99900000  0.83200000  1.0
  Si4+  Si1  1  0.25400000  0.49900000  0.33200000  1.0
  Si4+  Si1  1  0.75400000  0.49900000  0.33200000  1.0
  Si4+  Si1  1  0.25400000  0.49900000  0.83200000  1.0
  Si4+  Si1  1  0.75400000  0.49900000  0.83200000  1.0
  Si4+  Si1  1  0.25400000  0.99900000  0.33200000  1.0
  Si4+  Si1  1  0.75400000  0.99900000  0.33200000  1.0
  Si4+  Si1  1  0.25400000  0.99900000  0.83200000  1.0
  Si4+  Si1  1  0.75400000  0.99900000  0.83200000  1.0
  N3-  N1  1  0.03800000  0.33400000  0.30800000  1.0
  N3-  N1  1  0.53800000  0.33400000  0.30800000  1.0
  N3-  N1  1  0.03800000  0.33400000  0.80800000  1.0
  N3-  N1  1  0.53800000  0.33400000  0.80800000  1.0
  N3-  N1  1  0.03800000  0.83400000  0.30800000  1.0
  N3-  N1  1  0.53800000  0.83400000  0.30800000  1.0
  N3-  N1  1  0.03800000  0.83400000  0.80800000  1.0
  N3-  N1  1  0.53800000  0.83400000  0.80800000  1.0
  N3-  N1  1  0.28800000  0.33400000  0.30800000  1.0
  N3-  N1  1  0.78800000  0.33400000  0.30800000  1.0
  N3-  N1  1  0.28800000  0.33400000  0.80800000  1.0
  N3-  N1  1  0.78800000  0.33400000  0.80800000  1.0
  N3-  N1  1  0.28800000  0.83400000  0.30800000  1.0
  N3-  N1  1  0.78800000  0.83400000  0.30800000  1.0
  N3-  N1  1  0.28800000  0.83400000  0.80800000  1.0
  N3-  N1  1  0.78800000  0.83400000  0.80800000  1.0
  N3-  N1  1  0.03800000  0.02600000  0.19200000  1.0
  N3-  N1  1  0.53800000  0.02600000  0.19200000  1.0
  N3-  N1  1  0.03800000  0.02600000  0.69200000  1.0
  N3-  N1  1  0.53800000  0.02600000  0.69200000  1.0
  N3-  N1  1  0.03800000  0.52600000  0.19200000  1.0
  N3-  N1  1  0.53800000  0.52600000  0.19200000  1.0
  N3-  N1  1  0.03800000  0.52600000  0.69200000  1.0
  N3-  N1  1  0.53800000  0.52600000  0.69200000  1.0
  N3-  N1  1  0.28800000  0.02600000  0.19200000  1.0
  N3-  N1  1  0.78800000  0.02600000  0.19200000  1.0
  N3-  N1  1  0.28800000  0.02600000  0.69200000  1.0
  N3-  N1  1  0.78800000  0.02600000  0.69200000  1.0
  N3-  N1  1  0.28800000  0.52600000  0.19200000  1.0
  N3-  N1  1  0.78800000  0.52600000  0.19200000  1.0
  N3-  N1  1  0.28800000  0.52600000  0.69200000  1.0
  N3-  N1  1  0.78800000  0.52600000  0.69200000  1.0
  N3-  N1  1  0.16300000  0.16600000  0.19200000  1.0
  N3-  N1  1  0.66300000  0.16600000  0.19200000  1.0
  N3-  N1  1  0.16300000  0.16600000  0.69200000  1.0
  N3-  N1  1  0.66300000  0.16600000  0.69200000  1.0
  N3-  N1  1  0.16300000  0.66600000  0.19200000  1.0
  N3-  N1  1  0.66300000  0.66600000  0.19200000  1.0
  N3-  N1  1  0.16300000  0.66600000  0.69200000  1.0
  N3-  N1  1  0.66300000  0.66600000  0.69200000  1.0
  N3-  N1  1  0.41300000  0.16600000  0.19200000  1.0
  N3-  N1  1  0.91300000  0.16600000  0.19200000  1.0
  N3-  N1  1  0.41300000  0.16600000  0.69200000  1.0
  N3-  N1  1  0.91300000  0.16600000  0.69200000  1.0
  N3-  N1  1  0.41300000  0.66600000  0.19200000  1.0
  N3-  N1  1  0.91300000  0.66600000  0.19200000  1.0
  N3-  N1  1  0.41300000  0.66600000  0.69200000  1.0
  N3-  N1  1  0.91300000  0.66600000  0.69200000  1.0
  N3-  N1  1  0.16300000  0.47400000  0.30800000  1.0
  N3-  N1  1  0.66300000  0.47400000  0.30800000  1.0
  N3-  N1  1  0.16300000  0.47400000  0.80800000  1.0
  N3-  N1  1  0.66300000  0.47400000  0.80800000  1.0
  N3-  N1  1  0.16300000  0.97400000  0.30800000  1.0
  N3-  N1  1  0.66300000  0.97400000  0.30800000  1.0
  N3-  N1  1  0.16300000  0.97400000  0.80800000  1.0
  N3-  N1  1  0.66300000  0.97400000  0.80800000  1.0
  N3-  N1  1  0.41300000  0.47400000  0.30800000  1.0
  N3-  N1  1  0.91300000  0.47400000  0.30800000  1.0
  N3-  N1  1  0.41300000  0.47400000  0.80800000  1.0
  N3-  N1  1  0.91300000  0.47400000  0.80800000  1.0
  N3-  N1  1  0.41300000  0.97400000  0.30800000  1.0
  N3-  N1  1  0.91300000  0.97400000  0.30800000  1.0
  N3-  N1  1  0.41300000  0.97400000  0.80800000  1.0
  N3-  N1  1  0.91300000  0.97400000  0.80800000  1.0
  N3-  N2  1  0.01900000  0.14500000  0.50000000  1.0
  N3-  N2  1  0.51900000  0.14500000  0.50000000  1.0
  N3-  N2  1  0.01900000  0.14500000  0.00000000  1.0
  N3-  N2  1  0.51900000  0.14500000  0.00000000  1.0
  N3-  N2  1  0.01900000  0.64500000  0.50000000  1.0
  N3-  N2  1  0.51900000  0.64500000  0.50000000  1.0
  N3-  N2  1  0.01900000  0.64500000  0.00000000  1.0
  N3-  N2  1  0.51900000  0.64500000  0.00000000  1.0
  N3-  N2  1  0.26900000  0.14500000  0.50000000  1.0
  N3-  N2  1  0.76900000  0.14500000  0.50000000  1.0
  N3-  N2  1  0.26900000  0.14500000  0.00000000  1.0
  N3-  N2  1  0.76900000  0.14500000  0.00000000  1.0
  N3-  N2  1  0.26900000  0.64500000  0.50000000  1.0
  N3-  N2  1  0.76900000  0.64500000  0.50000000  1.0
  N3-  N2  1  0.26900000  0.64500000  0.00000000  1.0
  N3-  N2  1  0.76900000  0.64500000  0.00000000  1.0
  N3-  N2  1  0.14400000  0.35500000  0.00000000  1.0
  N3-  N2  1  0.64400000  0.35500000  0.00000000  1.0
  N3-  N2  1  0.14400000  0.35500000  0.50000000  1.0
  N3-  N2  1  0.64400000  0.35500000  0.50000000  1.0
  N3-  N2  1  0.14400000  0.85500000  0.00000000  1.0
  N3-  N2  1  0.64400000  0.85500000  0.00000000  1.0
  N3-  N2  1  0.14400000  0.85500000  0.50000000  1.0
  N3-  N2  1  0.64400000  0.85500000  0.50000000  1.0
  N3-  N2  1  0.39400000  0.35500000  0.00000000  1.0
  N3-  N2  1  0.89400000  0.35500000  0.00000000  1.0
  N3-  N2  1  0.39400000  0.35500000  0.50000000  1.0
  N3-  N2  1  0.89400000  0.35500000  0.50000000  1.0
  N3-  N2  1  0.39400000  0.85500000  0.00000000  1.0
  N3-  N2  1  0.89400000  0.85500000  0.00000000  1.0
  N3-  N2  1  0.39400000  0.85500000  0.50000000  1.0
  N3-  N2  1  0.89400000  0.85500000  0.50000000  1.0
