# generated using pymatgen
data_Li3AlGe3(PO4)6
_symmetry_space_group_name_H-M   'P 1'
_cell_length_a   8.25658000
_cell_length_b   8.37344238
_cell_length_c   24.76974000
_cell_angle_alpha   60.46060714
_cell_angle_beta   120.00000000
_cell_angle_gamma   119.53939286
_symmetry_Int_Tables_number   1
_chemical_formula_structural   Li3AlGe3(PO4)6
_chemical_formula_sum   'Li9 Al3 Ge9 P18 O72'
_cell_volume   1219.26875144
_cell_formula_units_Z   3
loop_
 _symmetry_equiv_pos_site_id
 _symmetry_equiv_pos_as_xyz
  1  'x, y, z'
loop_
 _atom_type_symbol
 _atom_type_oxidation_number
  Li+  1.0
  Al3+  3.0
  Ge4+  4.0
  P5+  5.0
  O2-  -2.0
loop_
 _atom_site_type_symbol
 _atom_site_label
 _atom_site_symmetry_multiplicity
 _atom_site_fract_x
 _atom_site_fract_y
 _atom_site_fract_z
 _atom_site_occupancy
  Li+  Li0  1  0.72193196  0.83055637  0.43910354  1.0
  Li+  Li1  1  0.16960000  0.82780000  0.17413333  1.0
  Li+  Li2  1  0.33040000  0.67220000  0.56020000  1.0
  Li+  Li3  1  0.06904547  0.16949254  0.80178483  1.0
  Li+  Li4  1  0.27240000  0.17220000  0.39353333  1.0
  Li+  Li5  1  0.50000000  0.50000000  0.25000000  1.0
  Li+  Li6  1  0.49681869  0.49503851  0.91648077  1.0
  Li+  Li7  1  0.00000000  0.00000000  0.75000000  1.0
  Li+  Li8  1  0.99393897  0.99896619  0.08628380  1.0
  Al3+  Al9  1  0.35976025  0.07688181  0.29658740  1.0
  Al3+  Al10  1  0.85829000  0.57487000  0.13057000  1.0
  Al3+  Al11  1  0.64508954  0.92565970  0.53702173  1.0
  Ge4+  Ge12  1  0.35829000  0.07487000  0.63057000  1.0
  Ge4+  Ge13  1  0.35829000  0.07487000  0.96390333  1.0
  Ge4+  Ge14  1  0.85829000  0.57487000  0.46390333  1.0
  Ge4+  Ge15  1  0.85829000  0.57487000  0.79723667  1.0
  Ge4+  Ge16  1  0.64171000  0.92513000  0.20276333  1.0
  Ge4+  Ge17  1  0.64171000  0.92513000  0.86943000  1.0
  Ge4+  Ge18  1  0.14171000  0.42513000  0.70276333  1.0
  Ge4+  Ge19  1  0.14080106  0.42395322  0.36723494  1.0
  Ge4+  Ge20  1  0.14171000  0.42513000  0.03609667  1.0
  P5+  P21  1  0.25000000  0.75000000  0.42913333  1.0
  P5+  P22  1  0.25000000  0.75000000  0.09580000  1.0
  P5+  P23  1  0.25000000  0.75000000  0.76246667  1.0
  P5+  P24  1  0.53671953  0.74714824  0.66521229  1.0
  P5+  P25  1  0.53740000  0.75000000  0.33333333  1.0
  P5+  P26  1  0.53740000  0.75000000  0.00000000  1.0
  P5+  P27  1  0.96260000  0.75000000  0.57086667  1.0
  P5+  P28  1  0.96260000  0.75000000  0.23753333  1.0
  P5+  P29  1  0.96260000  0.75000000  0.90420000  1.0
  P5+  P30  1  0.46222588  0.24972123  0.50027486  1.0
  P5+  P31  1  0.46287714  0.25068986  0.16666098  1.0
  P5+  P32  1  0.46260000  0.25000000  0.83333333  1.0
  P5+  P33  1  0.03740000  0.25000000  0.59580000  1.0
  P5+  P34  1  0.03740000  0.25000000  0.26246667  1.0
  P5+  P35  1  0.03740000  0.25000000  0.92913333  1.0
  P5+  P36  1  0.75000000  0.25000000  0.73753333  1.0
  P5+  P37  1  0.75000000  0.25000000  0.40420000  1.0
  P5+  P38  1  0.75000000  0.25000000  0.07086667  1.0
  O2-  O39  1  0.28957000  0.93291000  0.70521000  1.0
  O2-  O40  1  0.28957000  0.93291000  0.37187667  1.0
  O2-  O41  1  0.29094190  0.92930512  0.03962811  1.0
  O2-  O42  1  0.50855216  0.93260410  0.65247491  1.0
  O2-  O43  1  0.50897000  0.93291000  0.32014333  1.0
  O2-  O44  1  0.50897000  0.93291000  0.98681000  1.0
  O2-  O45  1  0.13437000  0.93291000  0.58034333  1.0
  O2-  O46  1  0.13437000  0.93291000  0.24701000  1.0
  O2-  O47  1  0.13437000  0.93291000  0.91367667  1.0
  O2-  O48  1  0.63437000  0.43291000  0.48681000  1.0
  O2-  O49  1  0.63437000  0.43291000  0.15347667  1.0
  O2-  O50  1  0.63437000  0.43291000  0.82014333  1.0
  O2-  O51  1  0.00897000  0.43291000  0.53854333  1.0
  O2-  O52  1  0.00897000  0.43291000  0.20521000  1.0
  O2-  O53  1  0.00897000  0.43291000  0.87187667  1.0
  O2-  O54  1  0.78957000  0.43291000  0.74701000  1.0
  O2-  O55  1  0.78959819  0.43197166  0.41556287  1.0
  O2-  O56  1  0.78957000  0.43291000  0.08034333  1.0
  O2-  O57  1  0.71336307  0.06600012  0.46155982  1.0
  O2-  O58  1  0.71043000  0.06709000  0.12812333  1.0
  O2-  O59  1  0.71043000  0.06709000  0.79479000  1.0
  O2-  O60  1  0.49103000  0.06709000  0.51319000  1.0
  O2-  O61  1  0.49103000  0.06709000  0.17985667  1.0
  O2-  O62  1  0.49103000  0.06709000  0.84652333  1.0
  O2-  O63  1  0.86214339  0.06759492  0.58250186  1.0
  O2-  O64  1  0.86563000  0.06709000  0.25299000  1.0
  O2-  O65  1  0.86563000  0.06709000  0.91965667  1.0
  O2-  O66  1  0.36563000  0.56709000  0.67985667  1.0
  O2-  O67  1  0.36712288  0.56668284  0.34688545  1.0
  O2-  O68  1  0.36563000  0.56709000  0.01319000  1.0
  O2-  O69  1  0.99103000  0.56709000  0.62812333  1.0
  O2-  O70  1  0.99103000  0.56709000  0.29479000  1.0
  O2-  O71  1  0.99103000  0.56709000  0.96145667  1.0
  O2-  O72  1  0.21095116  0.56526670  0.42097920  1.0
  O2-  O73  1  0.21043000  0.56709000  0.08632333  1.0
  O2-  O74  1  0.20943998  0.56413729  0.75235861  1.0
  O2-  O75  1  0.57788000  0.24704000  0.67360667  1.0
  O2-  O76  1  0.57463951  0.24716784  0.34461982  1.0
  O2-  O77  1  0.57788000  0.24704000  0.00694000  1.0
  O2-  O78  1  0.43675436  0.24667001  0.55476990  1.0
  O2-  O79  1  0.43998000  0.24704000  0.22404000  1.0
  O2-  O80  1  0.43998000  0.24704000  0.89070667  1.0
  O2-  O81  1  0.22918000  0.24704000  0.60334000  1.0
  O2-  O82  1  0.22918000  0.24704000  0.27000667  1.0
  O2-  O83  1  0.23303512  0.24175866  0.93763183  1.0
  O2-  O84  1  0.72918000  0.74704000  0.72404000  1.0
  O2-  O85  1  0.72918000  0.74704000  0.39070667  1.0
  O2-  O86  1  0.73003135  0.74910173  0.05413804  1.0
  O2-  O87  1  0.93786373  0.74406999  0.50584660  1.0
  O2-  O88  1  0.93998000  0.74704000  0.17360667  1.0
  O2-  O89  1  0.93998000  0.74704000  0.84027333  1.0
  O2-  O90  1  0.07788000  0.74704000  0.43667333  1.0
  O2-  O91  1  0.07788000  0.74704000  0.10334000  1.0
  O2-  O92  1  0.07788000  0.74704000  0.77000667  1.0
  O2-  O93  1  0.42224070  0.75274210  0.50120541  1.0
  O2-  O94  1  0.42212000  0.75296000  0.15972667  1.0
  O2-  O95  1  0.42212000  0.75296000  0.82639333  1.0
  O2-  O96  1  0.56002000  0.75296000  0.60929333  1.0
  O2-  O97  1  0.56002000  0.75296000  0.27596000  1.0
  O2-  O98  1  0.56064431  0.75369640  0.94659068  1.0
  O2-  O99  1  0.77082000  0.75296000  0.56332667  1.0
  O2-  O100  1  0.77082000  0.75296000  0.22999333  1.0
  O2-  O101  1  0.77082000  0.75296000  0.89666000  1.0
  O2-  O102  1  0.27082000  0.25296000  0.44262667  1.0
  O2-  O103  1  0.27082000  0.25296000  0.10929333  1.0
  O2-  O104  1  0.27082000  0.25296000  0.77596000  1.0
  O2-  O105  1  0.06002000  0.25296000  0.65972667  1.0
  O2-  O106  1  0.06487973  0.24806710  0.32803529  1.0
  O2-  O107  1  0.06002000  0.25296000  0.99306000  1.0
  O2-  O108  1  0.92101780  0.25185607  0.73083121  1.0
  O2-  O109  1  0.92212000  0.25296000  0.39666000  1.0
  O2-  O110  1  0.92212000  0.25296000  0.06332667  1.0
