# generated using pymatgen
data_Li3AlGe3(PO4)6
_symmetry_space_group_name_H-M   'P 1'
_cell_length_a   24.93650390
_cell_length_b   8.31216797
_cell_length_c   8.42981713
_cell_angle_alpha   119.53939286
_cell_angle_beta   119.53939286
_cell_angle_gamma   60.00000000
_symmetry_Int_Tables_number   1
_chemical_formula_structural   Li3AlGe3(PO4)6
_chemical_formula_sum   'Li9 Al3 Ge9 P18 O72'
_cell_volume   1244.06134361
_cell_formula_units_Z   3
loop_
 _symmetry_equiv_pos_site_id
 _symmetry_equiv_pos_as_xyz
  1  'x, y, z'
loop_
 _atom_type_symbol
 _atom_type_oxidation_number
  Li+  1.0
  Al3+  3.0
  Ge4+  4.0
  P5+  5.0
  O2-  -2.0
loop_
 _atom_site_type_symbol
 _atom_site_label
 _atom_site_symmetry_multiplicity
 _atom_site_fract_x
 _atom_site_fract_y
 _atom_site_fract_z
 _atom_site_occupancy
  Li+  Li0  1  0.68980000  0.93906667  0.17220000  1.0
  Li+  Li1  1  0.42413333  0.49706667  0.17220000  1.0
  Li+  Li2  1  0.81020000  0.33626667  0.32780000  1.0
  Li+  Li3  1  0.05653333  0.59726667  0.82780000  1.0
  Li+  Li4  1  0.64353333  0.39426667  0.82780000  1.0
  Li+  Li5  1  0.50000000  0.16666667  0.50000000  1.0
  Li+  Li6  1  0.16666667  0.16666667  0.50000000  1.0
  Li+  Li7  1  0.00000000  0.66666667  0.00000000  1.0
  Li+  Li8  1  0.33333333  0.66666667  0.00000000  1.0
  Al3+  Al9  1  0.54723667  0.30837667  0.92513000  1.0
  Al3+  Al10  1  0.38057000  0.80837667  0.42513000  1.0
  Al3+  Al11  1  0.78609667  0.02495667  0.07487000  1.0
  Ge4+  Ge12  1  0.88057000  0.30837667  0.92513000  1.0
  Ge4+  Ge13  1  0.21390333  0.30837667  0.92513000  1.0
  Ge4+  Ge14  1  0.71390333  0.80837667  0.42513000  1.0
  Ge4+  Ge15  1  0.04723667  0.80837667  0.42513000  1.0
  Ge4+  Ge16  1  0.45276333  0.02495667  0.07487000  1.0
  Ge4+  Ge17  1  0.11943000  0.02495667  0.07487000  1.0
  Ge4+  Ge18  1  0.95276333  0.52495667  0.57487000  1.0
  Ge4+  Ge19  1  0.61943000  0.52495667  0.57487000  1.0
  Ge4+  Ge20  1  0.28609667  0.52495667  0.57487000  1.0
  P5+  P21  1  0.67913333  0.41666667  0.25000000  1.0
  P5+  P22  1  0.34580000  0.41666667  0.25000000  1.0
  P5+  P23  1  0.01246667  0.41666667  0.25000000  1.0
  P5+  P24  1  0.91666667  0.12926667  0.25000000  1.0
  P5+  P25  1  0.58333333  0.12926667  0.25000000  1.0
  P5+  P26  1  0.25000000  0.12926667  0.25000000  1.0
  P5+  P27  1  0.82086667  0.70406667  0.25000000  1.0
  P5+  P28  1  0.48753333  0.70406667  0.25000000  1.0
  P5+  P29  1  0.15420000  0.70406667  0.25000000  1.0
  P5+  P30  1  0.75000000  0.20406667  0.75000000  1.0
  P5+  P31  1  0.41666667  0.20406667  0.75000000  1.0
  P5+  P32  1  0.08333333  0.20406667  0.75000000  1.0
  P5+  P33  1  0.84580000  0.62926667  0.75000000  1.0
  P5+  P34  1  0.51246667  0.62926667  0.75000000  1.0
  P5+  P35  1  0.17913333  0.62926667  0.75000000  1.0
  P5+  P36  1  0.98753333  0.91666667  0.75000000  1.0
  P5+  P37  1  0.65420000  0.91666667  0.75000000  1.0
  P5+  P38  1  0.32086667  0.91666667  0.75000000  1.0
  O2-  O39  1  0.95521000  0.37709667  0.06709000  1.0
  O2-  O40  1  0.62187667  0.37709667  0.06709000  1.0
  O2-  O41  1  0.28854333  0.37709667  0.06709000  1.0
  O2-  O42  1  0.90347667  0.15769667  0.06709000  1.0
  O2-  O43  1  0.57014333  0.15769667  0.06709000  1.0
  O2-  O44  1  0.23681000  0.15769667  0.06709000  1.0
  O2-  O45  1  0.83034333  0.53229667  0.06709000  1.0
  O2-  O46  1  0.49701000  0.53229667  0.06709000  1.0
  O2-  O47  1  0.16367667  0.53229667  0.06709000  1.0
  O2-  O48  1  0.73681000  0.03229667  0.56709000  1.0
  O2-  O49  1  0.40347667  0.03229667  0.56709000  1.0
  O2-  O50  1  0.07014333  0.03229667  0.56709000  1.0
  O2-  O51  1  0.78854333  0.65769667  0.56709000  1.0
  O2-  O52  1  0.45521000  0.65769667  0.56709000  1.0
  O2-  O53  1  0.12187667  0.65769667  0.56709000  1.0
  O2-  O54  1  0.99701000  0.87709667  0.56709000  1.0
  O2-  O55  1  0.66367667  0.87709667  0.56709000  1.0
  O2-  O56  1  0.33034333  0.87709667  0.56709000  1.0
  O2-  O57  1  0.71145667  0.95623667  0.93291000  1.0
  O2-  O58  1  0.37812333  0.95623667  0.93291000  1.0
  O2-  O59  1  0.04479000  0.95623667  0.93291000  1.0
  O2-  O60  1  0.76319000  0.17563667  0.93291000  1.0
  O2-  O61  1  0.42985667  0.17563667  0.93291000  1.0
  O2-  O62  1  0.09652333  0.17563667  0.93291000  1.0
  O2-  O63  1  0.83632333  0.80103667  0.93291000  1.0
  O2-  O64  1  0.50299000  0.80103667  0.93291000  1.0
  O2-  O65  1  0.16965667  0.80103667  0.93291000  1.0
  O2-  O66  1  0.92985667  0.30103667  0.43291000  1.0
  O2-  O67  1  0.59652333  0.30103667  0.43291000  1.0
  O2-  O68  1  0.26319000  0.30103667  0.43291000  1.0
  O2-  O69  1  0.87812333  0.67563667  0.43291000  1.0
  O2-  O70  1  0.54479000  0.67563667  0.43291000  1.0
  O2-  O71  1  0.21145667  0.67563667  0.43291000  1.0
  O2-  O72  1  0.66965667  0.45623667  0.43291000  1.0
  O2-  O73  1  0.33632333  0.45623667  0.43291000  1.0
  O2-  O74  1  0.00299000  0.45623667  0.43291000  1.0
  O2-  O75  1  0.92360667  0.08878667  0.75296000  1.0
  O2-  O76  1  0.59027333  0.08878667  0.75296000  1.0
  O2-  O77  1  0.25694000  0.08878667  0.75296000  1.0
  O2-  O78  1  0.80737333  0.22668667  0.75296000  1.0
  O2-  O79  1  0.47404000  0.22668667  0.75296000  1.0
  O2-  O80  1  0.14070667  0.22668667  0.75296000  1.0
  O2-  O81  1  0.85334000  0.43748667  0.75296000  1.0
  O2-  O82  1  0.52000667  0.43748667  0.75296000  1.0
  O2-  O83  1  0.18667333  0.43748667  0.75296000  1.0
  O2-  O84  1  0.97404000  0.93748667  0.25296000  1.0
  O2-  O85  1  0.64070667  0.93748667  0.25296000  1.0
  O2-  O86  1  0.30737333  0.93748667  0.25296000  1.0
  O2-  O87  1  0.75694000  0.72668667  0.25296000  1.0
  O2-  O88  1  0.42360667  0.72668667  0.25296000  1.0
  O2-  O89  1  0.09027333  0.72668667  0.25296000  1.0
  O2-  O90  1  0.68667333  0.58878667  0.25296000  1.0
  O2-  O91  1  0.35334000  0.58878667  0.25296000  1.0
  O2-  O92  1  0.02000667  0.58878667  0.25296000  1.0
  O2-  O93  1  0.74306000  0.24454667  0.24704000  1.0
  O2-  O94  1  0.40972667  0.24454667  0.24704000  1.0
  O2-  O95  1  0.07639333  0.24454667  0.24704000  1.0
  O2-  O96  1  0.85929333  0.10664667  0.24704000  1.0
  O2-  O97  1  0.52596000  0.10664667  0.24704000  1.0
  O2-  O98  1  0.19262667  0.10664667  0.24704000  1.0
  O2-  O99  1  0.81332667  0.89584667  0.24704000  1.0
  O2-  O100  1  0.47999333  0.89584667  0.24704000  1.0
  O2-  O101  1  0.14666000  0.89584667  0.24704000  1.0
  O2-  O102  1  0.69262667  0.39584667  0.74704000  1.0
  O2-  O103  1  0.35929333  0.39584667  0.74704000  1.0
  O2-  O104  1  0.02596000  0.39584667  0.74704000  1.0
  O2-  O105  1  0.90972667  0.60664667  0.74704000  1.0
  O2-  O106  1  0.57639333  0.60664667  0.74704000  1.0
  O2-  O107  1  0.24306000  0.60664667  0.74704000  1.0
  O2-  O108  1  0.97999333  0.74454667  0.74704000  1.0
  O2-  O109  1  0.64666000  0.74454667  0.74704000  1.0
  O2-  O110  1  0.31332667  0.74454667  0.74704000  1.0
