# generated using pymatgen
data_Li3AlGe3(PO4)6
_symmetry_space_group_name_H-M   'P 1'
_cell_length_a   8.25658000
_cell_length_b   24.76974000
_cell_length_c   8.37344238
_cell_angle_alpha   60.46060714
_cell_angle_beta   60.46060714
_cell_angle_gamma   60.00000000
_symmetry_Int_Tables_number   1
_chemical_formula_structural   Li3AlGe3(PO4)6
_chemical_formula_sum   'Li9 Al3 Ge9 P18 O72'
_cell_volume   1219.26875144
_cell_formula_units_Z   3
loop_
 _symmetry_equiv_pos_site_id
 _symmetry_equiv_pos_as_xyz
  1  'x, y, z'
loop_
 _atom_type_symbol
 _atom_type_oxidation_number
  Li+  1.0
  Al3+  3.0
  Ge4+  4.0
  P5+  5.0
  O2-  -2.0
loop_
 _atom_site_type_symbol
 _atom_site_label
 _atom_site_symmetry_multiplicity
 _atom_site_fract_x
 _atom_site_fract_y
 _atom_site_fract_z
 _atom_site_occupancy
  Li+  Li0  1  0.72760000  0.31020000  0.17220000  1.0
  Li+  Li1  1  0.16960000  0.57586667  0.17220000  1.0
  Li+  Li2  1  0.33040000  0.18980000  0.32780000  1.0
  Li+  Li3  1  0.06940000  0.94346667  0.82780000  1.0
  Li+  Li4  1  0.27240000  0.35646667  0.82780000  1.0
  Li+  Li5  1  0.50000000  0.50000000  0.50000000  1.0
  Li+  Li6  1  0.50000000  0.83333333  0.50000000  1.0
  Li+  Li7  1  0.00000000  0.00000000  0.00000000  1.0
  Li+  Li8  1  0.00000000  0.66666667  0.00000000  1.0
  Al3+  Al9  1  0.35829000  0.45276333  0.92513000  1.0
  Al3+  Al10  1  0.85829000  0.61943000  0.42513000  1.0
  Al3+  Al11  1  0.64171000  0.21390333  0.07487000  1.0
  Ge4+  Ge12  1  0.35829000  0.11943000  0.92513000  1.0
  Ge4+  Ge13  1  0.35829000  0.78609667  0.92513000  1.0
  Ge4+  Ge14  1  0.85829000  0.28609667  0.42513000  1.0
  Ge4+  Ge15  1  0.85829000  0.95276333  0.42513000  1.0
  Ge4+  Ge16  1  0.64171000  0.54723667  0.07487000  1.0
  Ge4+  Ge17  1  0.64171000  0.88057000  0.07487000  1.0
  Ge4+  Ge18  1  0.14171000  0.04723667  0.57487000  1.0
  Ge4+  Ge19  1  0.14171000  0.38057000  0.57487000  1.0
  Ge4+  Ge20  1  0.14171000  0.71390333  0.57487000  1.0
  P5+  P1  1  0.25000000  0.32086667  0.25000000  1.0
  P5+  P1  1  0.25000000  0.65420000  0.25000000  1.0
  P5+  P1  1  0.25000000  0.98753333  0.25000000  1.0
  P5+  P1  1  0.53740000  0.08333333  0.25000000  1.0
  P5+  P1  1  0.53740000  0.41666667  0.25000000  1.0
  P5+  P1  1  0.53740000  0.75000000  0.25000000  1.0
  P5+  P1  1  0.96260000  0.17913333  0.25000000  1.0
  P5+  P1  1  0.96260000  0.51246667  0.25000000  1.0
  P5+  P1  1  0.96260000  0.84580000  0.25000000  1.0
  P5+  P1  1  0.46260000  0.25000000  0.75000000  1.0
  P5+  P1  1  0.46260000  0.58333333  0.75000000  1.0
  P5+  P1  1  0.46260000  0.91666667  0.75000000  1.0
  P5+  P1  1  0.03740000  0.15420000  0.75000000  1.0
  P5+  P1  1  0.03740000  0.48753333  0.75000000  1.0
  P5+  P1  1  0.03740000  0.82086667  0.75000000  1.0
  P5+  P1  1  0.75000000  0.01246667  0.75000000  1.0
  P5+  P1  1  0.75000000  0.34580000  0.75000000  1.0
  P5+  P1  1  0.75000000  0.67913333  0.75000000  1.0
  O2-  O1  1  0.28957000  0.04479000  0.06709000  1.0
  O2-  O1  1  0.28957000  0.37812333  0.06709000  1.0
  O2-  O1  1  0.28957000  0.71145667  0.06709000  1.0
  O2-  O1  1  0.50897000  0.09652333  0.06709000  1.0
  O2-  O1  1  0.50897000  0.42985667  0.06709000  1.0
  O2-  O1  1  0.50897000  0.76319000  0.06709000  1.0
  O2-  O1  1  0.13437000  0.16965667  0.06709000  1.0
  O2-  O1  1  0.13437000  0.50299000  0.06709000  1.0
  O2-  O1  1  0.13437000  0.83632333  0.06709000  1.0
  O2-  O1  1  0.63437000  0.26319000  0.56709000  1.0
  O2-  O1  1  0.63437000  0.59652333  0.56709000  1.0
  O2-  O1  1  0.63437000  0.92985667  0.56709000  1.0
  O2-  O1  1  0.00897000  0.21145667  0.56709000  1.0
  O2-  O1  1  0.00897000  0.54479000  0.56709000  1.0
  O2-  O1  1  0.00897000  0.87812333  0.56709000  1.0
  O2-  O1  1  0.78957000  0.00299000  0.56709000  1.0
  O2-  O1  1  0.78957000  0.33632333  0.56709000  1.0
  O2-  O1  1  0.78957000  0.66965667  0.56709000  1.0
  O2-  O1  1  0.71043000  0.28854333  0.93291000  1.0
  O2-  O1  1  0.71043000  0.62187667  0.93291000  1.0
  O2-  O1  1  0.71043000  0.95521000  0.93291000  1.0
  O2-  O1  1  0.49103000  0.23681000  0.93291000  1.0
  O2-  O1  1  0.49103000  0.57014333  0.93291000  1.0
  O2-  O1  1  0.49103000  0.90347667  0.93291000  1.0
  O2-  O1  1  0.86563000  0.16367667  0.93291000  1.0
  O2-  O1  1  0.86563000  0.49701000  0.93291000  1.0
  O2-  O1  1  0.86563000  0.83034333  0.93291000  1.0
  O2-  O1  1  0.36563000  0.07014333  0.43291000  1.0
  O2-  O1  1  0.36563000  0.40347667  0.43291000  1.0
  O2-  O1  1  0.36563000  0.73681000  0.43291000  1.0
  O2-  O1  1  0.99103000  0.12187667  0.43291000  1.0
  O2-  O1  1  0.99103000  0.45521000  0.43291000  1.0
  O2-  O1  1  0.99103000  0.78854333  0.43291000  1.0
  O2-  O1  1  0.21043000  0.33034333  0.43291000  1.0
  O2-  O1  1  0.21043000  0.66367667  0.43291000  1.0
  O2-  O1  1  0.21043000  0.99701000  0.43291000  1.0
  O2-  O2  1  0.57788000  0.07639333  0.75296000  1.0
  O2-  O2  1  0.57788000  0.40972667  0.75296000  1.0
  O2-  O2  1  0.57788000  0.74306000  0.75296000  1.0
  O2-  O2  1  0.43998000  0.19262667  0.75296000  1.0
  O2-  O2  1  0.43998000  0.52596000  0.75296000  1.0
  O2-  O2  1  0.43998000  0.85929333  0.75296000  1.0
  O2-  O2  1  0.22918000  0.14666000  0.75296000  1.0
  O2-  O2  1  0.22918000  0.47999333  0.75296000  1.0
  O2-  O2  1  0.22918000  0.81332667  0.75296000  1.0
  O2-  O2  1  0.72918000  0.02596000  0.25296000  1.0
  O2-  O2  1  0.72918000  0.35929333  0.25296000  1.0
  O2-  O2  1  0.72918000  0.69262667  0.25296000  1.0
  O2-  O2  1  0.93998000  0.24306000  0.25296000  1.0
  O2-  O2  1  0.93998000  0.57639333  0.25296000  1.0
  O2-  O2  1  0.93998000  0.90972667  0.25296000  1.0
  O2-  O2  1  0.07788000  0.31332667  0.25296000  1.0
  O2-  O2  1  0.07788000  0.64666000  0.25296000  1.0
  O2-  O2  1  0.07788000  0.97999333  0.25296000  1.0
  O2-  O2  1  0.42212000  0.25694000  0.24704000  1.0
  O2-  O2  1  0.42212000  0.59027333  0.24704000  1.0
  O2-  O2  1  0.42212000  0.92360667  0.24704000  1.0
  O2-  O2  1  0.56002000  0.14070667  0.24704000  1.0
  O2-  O2  1  0.56002000  0.47404000  0.24704000  1.0
  O2-  O2  1  0.56002000  0.80737333  0.24704000  1.0
  O2-  O2  1  0.77082000  0.18667333  0.24704000  1.0
  O2-  O2  1  0.77082000  0.52000667  0.24704000  1.0
  O2-  O2  1  0.77082000  0.85334000  0.24704000  1.0
  O2-  O2  1  0.27082000  0.30737333  0.74704000  1.0
  O2-  O2  1  0.27082000  0.64070667  0.74704000  1.0
  O2-  O2  1  0.27082000  0.97404000  0.74704000  1.0
  O2-  O2  1  0.06002000  0.09027333  0.74704000  1.0
  O2-  O2  1  0.06002000  0.42360667  0.74704000  1.0
  O2-  O2  1  0.06002000  0.75694000  0.74704000  1.0
  O2-  O2  1  0.92212000  0.02000667  0.74704000  1.0
  O2-  O2  1  0.92212000  0.35334000  0.74704000  1.0
  O2-  O2  1  0.92212000  0.68667333  0.74704000  1.0
