# generated using pymatgen
data_Li31GeP4(S5I)5
_symmetry_space_group_name_H-M   'P 1'
_cell_length_a   14.40267619
_cell_length_b   36.00669047
_cell_length_c   7.20133809
_cell_angle_alpha   60.00000000
_cell_angle_beta   120.00000000
_cell_angle_gamma   120.00000000
_symmetry_Int_Tables_number   1
_chemical_formula_structural   Li31GeP4(S5I)5
_chemical_formula_sum   'Li62 Ge2 P8 S50 I10'
_cell_volume   2640.73368292
_cell_formula_units_Z   2
loop_
 _symmetry_equiv_pos_site_id
 _symmetry_equiv_pos_as_xyz
  1  'x, y, z'
loop_
 _atom_type_symbol
 _atom_type_oxidation_number
  Li+  1.0
  Ge4+  4.0
  P5+  5.0
  S2-  -2.0
  I-  -1.0
loop_
 _atom_site_type_symbol
 _atom_site_label
 _atom_site_symmetry_multiplicity
 _atom_site_fract_x
 _atom_site_fract_y
 _atom_site_fract_z
 _atom_site_occupancy
  Li+  Li0  1  0.74000000  0.90400000  0.73000000  1.0
  Li+  Li1  1  0.01060946  0.50107433  0.27277917  1.0
  Li+  Li2  1  0.01000000  0.10400000  0.27000000  1.0
  Li+  Li3  1  0.51000000  0.50400000  0.27000000  1.0
  Li+  Li4  1  0.50714481  0.10748004  0.26809342  1.0
  Li+  Li5  1  0.74000000  0.99600000  0.73000000  1.0
  Li+  Li6  1  0.01000000  0.70400000  0.73000000  1.0
  Li+  Li7  1  0.51000000  0.70400000  0.73000000  1.0
  Li+  Li8  1  0.51000000  0.30400000  0.73000000  1.0
  Li+  Li9  1  0.00962438  0.59215262  0.26739670  1.0
  Li+  Li10  1  0.01000000  0.19600000  0.27000000  1.0
  Li+  Li11  1  0.74000000  0.19600000  0.27000000  1.0
  Li+  Li12  1  0.19750000  0.68900000  0.72500000  1.0
  Li+  Li13  1  0.19750000  0.48900000  0.72500000  1.0
  Li+  Li14  1  0.19750000  0.08900000  0.72500000  1.0
  Li+  Li15  1  0.69428939  0.69046406  0.73011296  1.0
  Li+  Li16  1  0.69773654  0.28904645  0.72506545  1.0
  Li+  Li17  1  0.69750000  0.08900000  0.72500000  1.0
  Li+  Li18  1  0.01250000  0.72100000  0.19500000  1.0
  Li+  Li19  1  0.01250000  0.32100000  0.19500000  1.0
  Li+  Li20  1  0.51250000  0.92100000  0.19500000  1.0
  Li+  Li21  1  0.51503141  0.31947507  0.19236401  1.0
  Li+  Li22  1  0.51250000  0.12100000  0.19500000  1.0
  Li+  Li23  1  0.27750000  0.39500000  0.72500000  1.0
  Li+  Li24  1  0.27750000  0.19500000  0.72500000  1.0
  Li+  Li25  1  0.77834705  0.59352721  0.72597191  1.0
  Li+  Li26  1  0.77750000  0.39500000  0.72500000  1.0
  Li+  Li27  1  0.77750000  0.19500000  0.72500000  1.0
  Li+  Li28  1  0.27784468  0.92252589  0.72700167  1.0
  Li+  Li29  1  0.27750000  0.52100000  0.72500000  1.0
  Li+  Li30  1  0.27750000  0.32100000  0.72500000  1.0
  Li+  Li31  1  0.77867409  0.71592510  0.72820084  1.0
  Li+  Li32  1  0.77750000  0.32100000  0.72500000  1.0
  Li+  Li33  1  0.01642528  0.88954499  0.72730969  1.0
  Li+  Li34  1  0.01364520  0.28973231  0.72156510  1.0
  Li+  Li35  1  0.51250000  0.88900000  0.72500000  1.0
  Li+  Li36  1  0.51593083  0.48703065  0.72245706  1.0
  Li+  Li37  1  0.51250000  0.08900000  0.72500000  1.0
  Li+  Li38  1  0.01053521  0.12192048  0.72296313  1.0
  Li+  Li39  1  0.51250000  0.72100000  0.72500000  1.0
  Li+  Li40  1  0.51250000  0.52100000  0.72500000  1.0
  Li+  Li41  1  0.01250000  0.88900000  0.35500000  1.0
  Li+  Li42  1  0.01250000  0.48900000  0.35500000  1.0
  Li+  Li43  1  0.01250000  0.08900000  0.35500000  1.0
  Li+  Li44  1  0.51250000  0.68900000  0.35500000  1.0
  Li+  Li45  1  0.51250000  0.48900000  0.35500000  1.0
  Li+  Li46  1  0.51250000  0.79500000  0.35500000  1.0
  Li+  Li47  1  0.51250000  0.19500000  0.35500000  1.0
  Li+  Li48  1  0.19750000  0.99500000  0.72500000  1.0
  Li+  Li49  1  0.19750000  0.79500000  0.72500000  1.0
  Li+  Li50  1  0.69857000  0.79648003  0.72687665  1.0
  Li+  Li51  1  0.69750000  0.59500000  0.72500000  1.0
  Li+  Li52  1  0.69994726  0.39638493  0.72290832  1.0
  Li+  Li53  1  0.01023788  0.79424021  0.19996159  1.0
  Li+  Li54  1  0.01410487  0.19758767  0.19614795  1.0
  Li+  Li55  1  0.27569496  0.79536640  0.35539549  1.0
  Li+  Li56  1  0.27750000  0.59500000  0.35500000  1.0
  Li+  Li57  1  0.27750000  0.19500000  0.35500000  1.0
  Li+  Li58  1  0.77750000  0.79500000  0.35500000  1.0
  Li+  Li59  1  0.77750000  0.39500000  0.35500000  1.0
  Li+  Li60  1  0.19750000  0.99500000  0.19500000  1.0
  Li+  Li61  1  0.69750000  0.99500000  0.19500000  1.0
  Ge4+  Ge62  1  0.25000000  0.30000000  0.25000000  1.0
  Ge4+  Ge63  1  0.74950517  0.10199639  0.24558051  1.0
  P5+  P64  1  0.25000000  0.90000000  0.25000000  1.0
  P5+  P65  1  0.25000000  0.70000000  0.25000000  1.0
  P5+  P66  1  0.25000000  0.50000000  0.25000000  1.0
  P5+  P67  1  0.25000000  0.10000000  0.25000000  1.0
  P5+  P68  1  0.75000000  0.90000000  0.25000000  1.0
  P5+  P69  1  0.75555047  0.69777329  0.24957328  1.0
  P5+  P70  1  0.75000000  0.50000000  0.25000000  1.0
  P5+  P71  1  0.75000000  0.30000000  0.25000000  1.0
  S2-  S72  1  0.12500000  0.95000000  0.50000000  1.0
  S2-  S73  1  0.12500000  0.75000000  0.50000000  1.0
  S2-  S74  1  0.12500000  0.55000000  0.50000000  1.0
  S2-  S75  1  0.12500000  0.35000000  0.50000000  1.0
  S2-  S76  1  0.12500000  0.15000000  0.50000000  1.0
  S2-  S77  1  0.62500000  0.95000000  0.50000000  1.0
  S2-  S78  1  0.62500000  0.75000000  0.50000000  1.0
  S2-  S79  1  0.62500000  0.55000000  0.50000000  1.0
  S2-  S80  1  0.62032148  0.35009945  0.49991032  1.0
  S2-  S81  1  0.62500000  0.15000000  0.50000000  1.0
  S2-  S82  1  0.30868000  0.87652800  0.60208000  1.0
  S2-  S83  1  0.30868000  0.67652800  0.60208000  1.0
  S2-  S84  1  0.30868000  0.47652800  0.60208000  1.0
  S2-  S85  1  0.30868000  0.27652800  0.60208000  1.0
  S2-  S86  1  0.30614654  0.07212303  0.60509428  1.0
  S2-  S87  1  0.80532937  0.87434993  0.59934746  1.0
  S2-  S88  1  0.80868000  0.67652800  0.60208000  1.0
  S2-  S89  1  0.80868000  0.47652800  0.60208000  1.0
  S2-  S90  1  0.80868000  0.27652800  0.60208000  1.0
  S2-  S91  1  0.80868000  0.07652800  0.60208000  1.0
  S2-  S92  1  0.30868000  0.87652800  0.13264000  1.0
  S2-  S93  1  0.30868000  0.67652800  0.13264000  1.0
  S2-  S94  1  0.30868000  0.47652800  0.13264000  1.0
  S2-  S95  1  0.30868000  0.27652800  0.13264000  1.0
  S2-  S96  1  0.30868000  0.07652800  0.13264000  1.0
  S2-  S97  1  0.81347691  0.87991845  0.13262373  1.0
  S2-  S98  1  0.80868000  0.67652800  0.13264000  1.0
  S2-  S99  1  0.81163064  0.48008614  0.13000681  1.0
  S2-  S100  1  0.80710653  0.27781959  0.13617770  1.0
  S2-  S101  1  0.81170102  0.07877195  0.13128989  1.0
  S2-  S102  1  0.30868000  0.97041600  0.13264000  1.0
  S2-  S103  1  0.31001901  0.77101243  0.13458481  1.0
  S2-  S104  1  0.30868000  0.57041600  0.13264000  1.0
  S2-  S105  1  0.30868000  0.37041600  0.13264000  1.0
  S2-  S106  1  0.30868000  0.17041600  0.13264000  1.0
  S2-  S107  1  0.80868000  0.97041600  0.13264000  1.0
  S2-  S108  1  0.80868000  0.77041600  0.13264000  1.0
  S2-  S109  1  0.80868000  0.57041600  0.13264000  1.0
  S2-  S110  1  0.80868000  0.37041600  0.13264000  1.0
  S2-  S111  1  0.80747195  0.16758623  0.13384746  1.0
  S2-  S112  1  0.07504095  0.87307271  0.13214527  1.0
  S2-  S113  1  0.06931563  0.68182980  0.13504425  1.0
  S2-  S114  1  0.07396000  0.47652800  0.13264000  1.0
  S2-  S115  1  0.07396000  0.27652800  0.13264000  1.0
  S2-  S116  1  0.07396000  0.07652800  0.13264000  1.0
  S2-  S117  1  0.57539917  0.87487837  0.13071075  1.0
  S2-  S118  1  0.57396000  0.67652800  0.13264000  1.0
  S2-  S119  1  0.57396000  0.47652800  0.13264000  1.0
  S2-  S120  1  0.57396000  0.27652800  0.13264000  1.0
  S2-  S121  1  0.57396000  0.07652800  0.13264000  1.0
  I-  I122  1  0.00000000  0.00000000  0.75000000  1.0
  I-  I123  1  0.00000000  0.80000000  0.75000000  1.0
  I-  I124  1  0.00000000  0.60000000  0.75000000  1.0
  I-  I125  1  0.00000000  0.40000000  0.75000000  1.0
  I-  I126  1  0.00000000  0.20000000  0.75000000  1.0
  I-  I127  1  0.50000000  0.00000000  0.75000000  1.0
  I-  I128  1  0.50000000  0.80000000  0.75000000  1.0
  I-  I129  1  0.49732299  0.60301639  0.75074075  1.0
  I-  I130  1  0.50000000  0.40000000  0.75000000  1.0
  I-  I131  1  0.50000000  0.20000000  0.75000000  1.0
