# generated using pymatgen
data_SrLiTa2O6F
_symmetry_space_group_name_H-M   'P 1'
_cell_length_a   14.93835563
_cell_length_b   14.93835563
_cell_length_c   14.93835563
_cell_angle_alpha   120.00000000
_cell_angle_beta   120.00000000
_cell_angle_gamma   60.00000000
_symmetry_Int_Tables_number   1
_chemical_formula_structural   SrLiTa2O6F
_chemical_formula_sum   'Sr16 Li16 Ta32 O96 F16'
_cell_volume   2357.18345939
_cell_formula_units_Z   16
loop_
 _symmetry_equiv_pos_site_id
 _symmetry_equiv_pos_as_xyz
  1  'x, y, z'
loop_
 _atom_type_symbol
 _atom_type_oxidation_number
  Sr2+  2.0
  Li+  1.0
  Ta5+  5.0
  O2-  -2.0
  F-  -1.0
loop_
 _atom_site_type_symbol
 _atom_site_label
 _atom_site_symmetry_multiplicity
 _atom_site_fract_x
 _atom_site_fract_y
 _atom_site_fract_z
 _atom_site_occupancy
  Sr2+  Sr0  1  0.75000000  0.41666667  0.50000000  1.0
  Sr2+  Sr1  1  0.75000000  0.91666667  0.50000000  1.0
  Sr2+  Sr2  1  0.25000000  0.41666667  0.00000000  1.0
  Sr2+  Sr3  1  0.25000000  0.91666667  0.00000000  1.0
  Sr2+  Sr4  1  0.00000000  0.41666667  0.75000000  1.0
  Sr2+  Sr5  1  0.00000000  0.91666667  0.75000000  1.0
  Sr2+  Sr6  1  0.75000000  0.66666667  0.25000000  1.0
  Sr2+  Sr7  1  0.75000000  0.16666667  0.25000000  1.0
  Sr2+  Sr8  1  0.75000000  0.66666667  0.75000000  1.0
  Sr2+  Sr9  1  0.75000000  0.16666667  0.75000000  1.0
  Sr2+  Sr10  1  0.25000000  0.66666667  0.25000000  1.0
  Sr2+  Sr11  1  0.25000000  0.16666667  0.25000000  1.0
  Sr2+  Sr12  1  0.25000000  0.66666667  0.75000000  1.0
  Sr2+  Sr13  1  0.25000000  0.16666667  0.75000000  1.0
  Sr2+  Sr14  1  0.25000000  0.41666667  0.25000000  1.0
  Sr2+  Sr15  1  0.25000000  0.91666667  0.25000000  1.0
  Li+  Li16  1  0.75000000  0.41666667  0.00000000  1.0
  Li+  Li17  1  0.75000000  0.91666667  0.00000000  1.0
  Li+  Li18  1  0.25000000  0.41666667  0.50000000  1.0
  Li+  Li19  1  0.25000000  0.91666667  0.50000000  1.0
  Li+  Li20  1  0.50000000  0.41666667  0.25000000  1.0
  Li+  Li21  1  0.50000000  0.91666667  0.25000000  1.0
  Li+  Li22  1  0.50000000  0.41666667  0.75000000  1.0
  Li+  Li23  1  0.50000000  0.91666667  0.75000000  1.0
  Li+  Li24  1  0.00000000  0.41666667  0.25000000  1.0
  Li+  Li25  1  0.00000000  0.91666667  0.25000000  1.0
  Li+  Li26  1  0.75000000  0.41666667  0.25000000  1.0
  Li+  Li27  1  0.75000000  0.91666667  0.25000000  1.0
  Li+  Li28  1  0.75000000  0.41666667  0.75000000  1.0
  Li+  Li29  1  0.75000000  0.91666667  0.75000000  1.0
  Li+  Li30  1  0.25000000  0.41666667  0.75000000  1.0
  Li+  Li31  1  0.25000000  0.91666667  0.75000000  1.0
  Ta5+  Ta32  1  0.00000000  0.66666667  0.25000000  1.0
  Ta5+  Ta33  1  0.00000000  0.16666667  0.25000000  1.0
  Ta5+  Ta34  1  0.00000000  0.66666667  0.75000000  1.0
  Ta5+  Ta35  1  0.00000000  0.16666667  0.75000000  1.0
  Ta5+  Ta36  1  0.50000000  0.66666667  0.25000000  1.0
  Ta5+  Ta37  1  0.50000000  0.16666667  0.25000000  1.0
  Ta5+  Ta38  1  0.50000000  0.66666667  0.75000000  1.0
  Ta5+  Ta39  1  0.50000000  0.16666667  0.75000000  1.0
  Ta5+  Ta40  1  0.75000000  0.66666667  0.00000000  1.0
  Ta5+  Ta41  1  0.75000000  0.16666667  0.00000000  1.0
  Ta5+  Ta42  1  0.75000000  0.66666667  0.50000000  1.0
  Ta5+  Ta43  1  0.75000000  0.16666667  0.50000000  1.0
  Ta5+  Ta44  1  0.25000000  0.66666667  0.00000000  1.0
  Ta5+  Ta45  1  0.25000000  0.16666667  0.00000000  1.0
  Ta5+  Ta46  1  0.25000000  0.66666667  0.50000000  1.0
  Ta5+  Ta47  1  0.25000000  0.16666667  0.50000000  1.0
  Ta5+  Ta48  1  0.50000000  0.41666667  0.00000000  1.0
  Ta5+  Ta49  1  0.50000000  0.91666667  0.00000000  1.0
  Ta5+  Ta50  1  0.50000000  0.41666667  0.50000000  1.0
  Ta5+  Ta51  1  0.50000000  0.91666667  0.50000000  1.0
  Ta5+  Ta52  1  0.00000000  0.41666667  0.00000000  1.0
  Ta5+  Ta53  1  0.00000000  0.91666667  0.00000000  1.0
  Ta5+  Ta54  1  0.00000000  0.41666667  0.50000000  1.0
  Ta5+  Ta55  1  0.00000000  0.91666667  0.50000000  1.0
  Ta5+  Ta56  1  0.00000000  0.66666667  0.00000000  1.0
  Ta5+  Ta57  1  0.00000000  0.16666667  0.00000000  1.0
  Ta5+  Ta58  1  0.00000000  0.66666667  0.50000000  1.0
  Ta5+  Ta59  1  0.00000000  0.16666667  0.50000000  1.0
  Ta5+  Ta60  1  0.50000000  0.66666667  0.00000000  1.0
  Ta5+  Ta61  1  0.50000000  0.16666667  0.00000000  1.0
  Ta5+  Ta62  1  0.50000000  0.66666667  0.50000000  1.0
  Ta5+  Ta63  1  0.50000000  0.16666667  0.50000000  1.0
  O2-  O64  1  0.65778000  0.50888667  0.59222000  1.0
  O2-  O65  1  0.65778000  0.00888667  0.59222000  1.0
  O2-  O66  1  0.40778000  0.50888667  0.84222000  1.0
  O2-  O67  1  0.40778000  0.00888667  0.84222000  1.0
  O2-  O68  1  0.84222000  0.57444667  0.15778000  1.0
  O2-  O69  1  0.84222000  0.07444667  0.15778000  1.0
  O2-  O70  1  0.84222000  0.57444667  0.65778000  1.0
  O2-  O71  1  0.84222000  0.07444667  0.65778000  1.0
  O2-  O72  1  0.84222000  0.32444667  0.15778000  1.0
  O2-  O73  1  0.84222000  0.82444667  0.15778000  1.0
  O2-  O74  1  0.84222000  0.32444667  0.65778000  1.0
  O2-  O75  1  0.84222000  0.82444667  0.65778000  1.0
  O2-  O76  1  0.34222000  0.32444667  0.15778000  1.0
  O2-  O77  1  0.34222000  0.82444667  0.15778000  1.0
  O2-  O78  1  0.84222000  0.57444667  0.34222000  1.0
  O2-  O79  1  0.84222000  0.07444667  0.34222000  1.0
  O2-  O80  1  0.84222000  0.57444667  0.84222000  1.0
  O2-  O81  1  0.84222000  0.07444667  0.84222000  1.0
  O2-  O82  1  0.34222000  0.57444667  0.84222000  1.0
  O2-  O83  1  0.34222000  0.07444667  0.84222000  1.0
  O2-  O84  1  0.84222000  0.32444667  0.09222000  1.0
  O2-  O85  1  0.84222000  0.82444667  0.09222000  1.0
  O2-  O86  1  0.34222000  0.32444667  0.09222000  1.0
  O2-  O87  1  0.34222000  0.82444667  0.09222000  1.0
  O2-  O88  1  0.90778000  0.50888667  0.65778000  1.0
  O2-  O89  1  0.90778000  0.00888667  0.65778000  1.0
  O2-  O90  1  0.40778000  0.50888667  0.15778000  1.0
  O2-  O91  1  0.40778000  0.00888667  0.15778000  1.0
  O2-  O92  1  0.40778000  0.50888667  0.65778000  1.0
  O2-  O93  1  0.40778000  0.00888667  0.65778000  1.0
  O2-  O94  1  0.65778000  0.50888667  0.15778000  1.0
  O2-  O95  1  0.65778000  0.00888667  0.15778000  1.0
  O2-  O96  1  0.15778000  0.50888667  0.65778000  1.0
  O2-  O97  1  0.15778000  0.00888667  0.65778000  1.0
  O2-  O98  1  0.40778000  0.32444667  0.65778000  1.0
  O2-  O99  1  0.40778000  0.82444667  0.65778000  1.0
  O2-  O100  1  0.15778000  0.57444667  0.15778000  1.0
  O2-  O101  1  0.15778000  0.07444667  0.15778000  1.0
  O2-  O102  1  0.15778000  0.57444667  0.65778000  1.0
  O2-  O103  1  0.15778000  0.07444667  0.65778000  1.0
  O2-  O104  1  0.84222000  0.50888667  0.34222000  1.0
  O2-  O105  1  0.84222000  0.00888667  0.34222000  1.0
  O2-  O106  1  0.84222000  0.50888667  0.84222000  1.0
  O2-  O107  1  0.84222000  0.00888667  0.84222000  1.0
  O2-  O108  1  0.84222000  0.32444667  0.40778000  1.0
  O2-  O109  1  0.84222000  0.82444667  0.40778000  1.0
  O2-  O110  1  0.34222000  0.32444667  0.40778000  1.0
  O2-  O111  1  0.34222000  0.82444667  0.40778000  1.0
  O2-  O112  1  0.34222000  0.32444667  0.90778000  1.0
  O2-  O113  1  0.34222000  0.82444667  0.90778000  1.0
  O2-  O114  1  0.59222000  0.32444667  0.65778000  1.0
  O2-  O115  1  0.59222000  0.82444667  0.65778000  1.0
  O2-  O116  1  0.09222000  0.32444667  0.15778000  1.0
  O2-  O117  1  0.09222000  0.82444667  0.15778000  1.0
  O2-  O118  1  0.09222000  0.32444667  0.65778000  1.0
  O2-  O119  1  0.09222000  0.82444667  0.65778000  1.0
  O2-  O120  1  0.65778000  0.25888667  0.34222000  1.0
  O2-  O121  1  0.65778000  0.75888667  0.34222000  1.0
  O2-  O122  1  0.65778000  0.25888667  0.84222000  1.0
  O2-  O123  1  0.65778000  0.75888667  0.84222000  1.0
  O2-  O124  1  0.15778000  0.25888667  0.34222000  1.0
  O2-  O125  1  0.15778000  0.75888667  0.34222000  1.0
  O2-  O126  1  0.15778000  0.25888667  0.84222000  1.0
  O2-  O127  1  0.15778000  0.75888667  0.84222000  1.0
  O2-  O128  1  0.65778000  0.25888667  0.15778000  1.0
  O2-  O129  1  0.65778000  0.75888667  0.15778000  1.0
  O2-  O130  1  0.65778000  0.25888667  0.65778000  1.0
  O2-  O131  1  0.65778000  0.75888667  0.65778000  1.0
  O2-  O132  1  0.65778000  0.50888667  0.40778000  1.0
  O2-  O133  1  0.65778000  0.00888667  0.40778000  1.0
  O2-  O134  1  0.65778000  0.50888667  0.90778000  1.0
  O2-  O135  1  0.65778000  0.00888667  0.90778000  1.0
  O2-  O136  1  0.15778000  0.50888667  0.40778000  1.0
  O2-  O137  1  0.15778000  0.00888667  0.40778000  1.0
  O2-  O138  1  0.09222000  0.32444667  0.84222000  1.0
  O2-  O139  1  0.09222000  0.82444667  0.84222000  1.0
  O2-  O140  1  0.84222000  0.32444667  0.84222000  1.0
  O2-  O141  1  0.84222000  0.82444667  0.84222000  1.0
  O2-  O142  1  0.34222000  0.32444667  0.34222000  1.0
  O2-  O143  1  0.34222000  0.82444667  0.34222000  1.0
  O2-  O144  1  0.34222000  0.32444667  0.84222000  1.0
  O2-  O145  1  0.34222000  0.82444667  0.84222000  1.0
  O2-  O146  1  0.59222000  0.50888667  0.34222000  1.0
  O2-  O147  1  0.59222000  0.00888667  0.34222000  1.0
  O2-  O148  1  0.59222000  0.50888667  0.84222000  1.0
  O2-  O149  1  0.59222000  0.00888667  0.84222000  1.0
  O2-  O150  1  0.09222000  0.50888667  0.84222000  1.0
  O2-  O151  1  0.09222000  0.00888667  0.84222000  1.0
  O2-  O152  1  0.84222000  0.25888667  0.84222000  1.0
  O2-  O153  1  0.84222000  0.75888667  0.84222000  1.0
  O2-  O154  1  0.65778000  0.32444667  0.40778000  1.0
  O2-  O155  1  0.65778000  0.82444667  0.40778000  1.0
  O2-  O156  1  0.15778000  0.32444667  0.40778000  1.0
  O2-  O157  1  0.15778000  0.82444667  0.40778000  1.0
  O2-  O158  1  0.15778000  0.32444667  0.15778000  1.0
  O2-  O159  1  0.15778000  0.82444667  0.15778000  1.0
  F-  F160  1  0.81250000  0.47916667  0.18750000  1.0
  F-  F161  1  0.81250000  0.97916667  0.18750000  1.0
  F-  F162  1  0.81250000  0.47916667  0.68750000  1.0
  F-  F163  1  0.81250000  0.97916667  0.68750000  1.0
  F-  F164  1  0.31250000  0.47916667  0.18750000  1.0
  F-  F165  1  0.31250000  0.97916667  0.18750000  1.0
  F-  F166  1  0.31250000  0.47916667  0.68750000  1.0
  F-  F167  1  0.31250000  0.97916667  0.68750000  1.0
  F-  F168  1  0.68750000  0.35416667  0.31250000  1.0
  F-  F169  1  0.68750000  0.85416667  0.31250000  1.0
  F-  F170  1  0.68750000  0.35416667  0.81250000  1.0
  F-  F171  1  0.68750000  0.85416667  0.81250000  1.0
  F-  F172  1  0.18750000  0.35416667  0.31250000  1.0
  F-  F173  1  0.18750000  0.85416667  0.31250000  1.0
  F-  F174  1  0.18750000  0.35416667  0.81250000  1.0
  F-  F175  1  0.18750000  0.85416667  0.81250000  1.0
