# generated using pymatgen
data_SrLiTa2O6F
_symmetry_space_group_name_H-M   'P 1'
_cell_length_a   14.79834486
_cell_length_b   14.79834486
_cell_length_c   14.79834486
_cell_angle_alpha   60.00000000
_cell_angle_beta   60.00000000
_cell_angle_gamma   60.00000000
_symmetry_Int_Tables_number   1
_chemical_formula_structural   SrLiTa2O6F
_chemical_formula_sum   'Sr16 Li16 Ta32 O96 F16'
_cell_volume   2291.52412497
_cell_formula_units_Z   16
loop_
 _symmetry_equiv_pos_site_id
 _symmetry_equiv_pos_as_xyz
  1  'x, y, z'
loop_
 _atom_type_symbol
 _atom_type_oxidation_number
  Sr2+  2.0
  Li+  1.0
  Ta5+  5.0
  O2-  -2.0
  F-  -1.0
loop_
 _atom_site_type_symbol
 _atom_site_label
 _atom_site_symmetry_multiplicity
 _atom_site_fract_x
 _atom_site_fract_y
 _atom_site_fract_z
 _atom_site_occupancy
  Sr2+  Sr0  1  0.25000000  0.25000000  0.50000000  1.0
  Sr2+  Sr0  1  0.75000000  0.25000000  0.50000000  1.0
  Sr2+  Sr1  1  0.25000000  0.75000000  0.00000000  1.0
  Sr2+  Sr1  1  0.75000000  0.75000000  0.00000000  1.0
  Sr2+  Sr2  1  0.25000000  0.00000000  0.75000000  1.0
  Sr2+  Sr2  1  0.75000000  0.00000000  0.75000000  1.0
  Sr2+  Sr3  1  0.00000000  0.25000000  0.25000000  1.0
  Sr2+  Sr3  1  0.50000000  0.25000000  0.25000000  1.0
  Sr2+  Sr4  1  0.00000000  0.25000000  0.75000000  1.0
  Sr2+  Sr4  1  0.50000000  0.25000000  0.75000000  1.0
  Sr2+  Sr5  1  0.00000000  0.75000000  0.25000000  1.0
  Sr2+  Sr5  1  0.50000000  0.75000000  0.25000000  1.0
  Sr2+  Sr6  1  0.00000000  0.75000000  0.75000000  1.0
  Sr2+  Sr6  1  0.50000000  0.75000000  0.75000000  1.0
  Sr2+  Sr7  1  0.25000000  0.75000000  0.25000000  1.0
  Sr2+  Sr7  1  0.75000000  0.75000000  0.25000000  1.0
  Li+  Li8  1  0.25000000  0.25000000  0.00000000  1.0
  Li+  Li8  1  0.75000000  0.25000000  0.00000000  1.0
  Li+  Li9  1  0.25000000  0.75000000  0.50000000  1.0
  Li+  Li9  1  0.75000000  0.75000000  0.50000000  1.0
  Li+  Li10  1  0.25000000  0.50000000  0.25000000  1.0
  Li+  Li10  1  0.75000000  0.50000000  0.25000000  1.0
  Li+  Li11  1  0.25000000  0.50000000  0.75000000  1.0
  Li+  Li11  1  0.75000000  0.50000000  0.75000000  1.0
  Li+  Li12  1  0.25000000  0.00000000  0.25000000  1.0
  Li+  Li12  1  0.75000000  0.00000000  0.25000000  1.0
  Li+  Li13  1  0.25000000  0.25000000  0.25000000  1.0
  Li+  Li13  1  0.75000000  0.25000000  0.25000000  1.0
  Li+  Li14  1  0.25000000  0.25000000  0.75000000  1.0
  Li+  Li14  1  0.75000000  0.25000000  0.75000000  1.0
  Li+  Li15  1  0.25000000  0.75000000  0.75000000  1.0
  Li+  Li15  1  0.75000000  0.75000000  0.75000000  1.0
  Ta5+  Ta1  1  0.00000000  0.00000000  0.25000000  1.0
  Ta5+  Ta1  1  0.50000000  0.00000000  0.25000000  1.0
  Ta5+  Ta1  1  0.00000000  0.00000000  0.75000000  1.0
  Ta5+  Ta1  1  0.50000000  0.00000000  0.75000000  1.0
  Ta5+  Ta1  1  0.00000000  0.50000000  0.25000000  1.0
  Ta5+  Ta1  1  0.50000000  0.50000000  0.25000000  1.0
  Ta5+  Ta1  1  0.00000000  0.50000000  0.75000000  1.0
  Ta5+  Ta1  1  0.50000000  0.50000000  0.75000000  1.0
  Ta5+  Ta1  1  0.00000000  0.25000000  0.00000000  1.0
  Ta5+  Ta1  1  0.50000000  0.25000000  0.00000000  1.0
  Ta5+  Ta1  1  0.00000000  0.25000000  0.50000000  1.0
  Ta5+  Ta1  1  0.50000000  0.25000000  0.50000000  1.0
  Ta5+  Ta1  1  0.00000000  0.75000000  0.00000000  1.0
  Ta5+  Ta1  1  0.50000000  0.75000000  0.00000000  1.0
  Ta5+  Ta1  1  0.00000000  0.75000000  0.50000000  1.0
  Ta5+  Ta1  1  0.50000000  0.75000000  0.50000000  1.0
  Ta5+  Ta1  1  0.25000000  0.50000000  0.00000000  1.0
  Ta5+  Ta1  1  0.75000000  0.50000000  0.00000000  1.0
  Ta5+  Ta1  1  0.25000000  0.50000000  0.50000000  1.0
  Ta5+  Ta1  1  0.75000000  0.50000000  0.50000000  1.0
  Ta5+  Ta1  1  0.25000000  0.00000000  0.00000000  1.0
  Ta5+  Ta1  1  0.75000000  0.00000000  0.00000000  1.0
  Ta5+  Ta1  1  0.25000000  0.00000000  0.50000000  1.0
  Ta5+  Ta1  1  0.75000000  0.00000000  0.50000000  1.0
  Ta5+  Ta1  1  0.00000000  0.00000000  0.00000000  1.0
  Ta5+  Ta1  1  0.50000000  0.00000000  0.00000000  1.0
  Ta5+  Ta1  1  0.00000000  0.00000000  0.50000000  1.0
  Ta5+  Ta1  1  0.50000000  0.00000000  0.50000000  1.0
  Ta5+  Ta1  1  0.00000000  0.50000000  0.00000000  1.0
  Ta5+  Ta1  1  0.50000000  0.50000000  0.00000000  1.0
  Ta5+  Ta1  1  0.00000000  0.50000000  0.50000000  1.0
  Ta5+  Ta1  1  0.50000000  0.50000000  0.50000000  1.0
  O2-  O32  1  0.15778000  0.34222000  0.59222000  1.0
  O2-  O32  1  0.65778000  0.34222000  0.59222000  1.0
  O2-  O33  1  0.15778000  0.59222000  0.84222000  1.0
  O2-  O33  1  0.65778000  0.59222000  0.84222000  1.0
  O2-  O34  1  0.09222000  0.15778000  0.15778000  1.0
  O2-  O34  1  0.59222000  0.15778000  0.15778000  1.0
  O2-  O35  1  0.09222000  0.15778000  0.65778000  1.0
  O2-  O35  1  0.59222000  0.15778000  0.65778000  1.0
  O2-  O36  1  0.34222000  0.15778000  0.15778000  1.0
  O2-  O36  1  0.84222000  0.15778000  0.15778000  1.0
  O2-  O37  1  0.34222000  0.15778000  0.65778000  1.0
  O2-  O37  1  0.84222000  0.15778000  0.65778000  1.0
  O2-  O38  1  0.34222000  0.65778000  0.15778000  1.0
  O2-  O38  1  0.84222000  0.65778000  0.15778000  1.0
  O2-  O39  1  0.09222000  0.15778000  0.34222000  1.0
  O2-  O39  1  0.59222000  0.15778000  0.34222000  1.0
  O2-  O40  1  0.09222000  0.15778000  0.84222000  1.0
  O2-  O40  1  0.59222000  0.15778000  0.84222000  1.0
  O2-  O41  1  0.09222000  0.65778000  0.84222000  1.0
  O2-  O41  1  0.59222000  0.65778000  0.84222000  1.0
  O2-  O42  1  0.34222000  0.15778000  0.09222000  1.0
  O2-  O42  1  0.84222000  0.15778000  0.09222000  1.0
  O2-  O43  1  0.34222000  0.65778000  0.09222000  1.0
  O2-  O43  1  0.84222000  0.65778000  0.09222000  1.0
  O2-  O44  1  0.15778000  0.09222000  0.65778000  1.0
  O2-  O44  1  0.65778000  0.09222000  0.65778000  1.0
  O2-  O45  1  0.15778000  0.59222000  0.15778000  1.0
  O2-  O45  1  0.65778000  0.59222000  0.15778000  1.0
  O2-  O46  1  0.15778000  0.59222000  0.65778000  1.0
  O2-  O46  1  0.65778000  0.59222000  0.65778000  1.0
  O2-  O47  1  0.15778000  0.34222000  0.15778000  1.0
  O2-  O47  1  0.65778000  0.34222000  0.15778000  1.0
  O2-  O48  1  0.15778000  0.84222000  0.65778000  1.0
  O2-  O48  1  0.65778000  0.84222000  0.65778000  1.0
  O2-  O49  1  0.34222000  0.59222000  0.65778000  1.0
  O2-  O49  1  0.84222000  0.59222000  0.65778000  1.0
  O2-  O50  1  0.09222000  0.84222000  0.15778000  1.0
  O2-  O50  1  0.59222000  0.84222000  0.15778000  1.0
  O2-  O51  1  0.09222000  0.84222000  0.65778000  1.0
  O2-  O51  1  0.59222000  0.84222000  0.65778000  1.0
  O2-  O52  1  0.15778000  0.15778000  0.34222000  1.0
  O2-  O52  1  0.65778000  0.15778000  0.34222000  1.0
  O2-  O53  1  0.15778000  0.15778000  0.84222000  1.0
  O2-  O53  1  0.65778000  0.15778000  0.84222000  1.0
  O2-  O54  1  0.34222000  0.15778000  0.40778000  1.0
  O2-  O54  1  0.84222000  0.15778000  0.40778000  1.0
  O2-  O55  1  0.34222000  0.65778000  0.40778000  1.0
  O2-  O55  1  0.84222000  0.65778000  0.40778000  1.0
  O2-  O56  1  0.34222000  0.65778000  0.90778000  1.0
  O2-  O56  1  0.84222000  0.65778000  0.90778000  1.0
  O2-  O57  1  0.34222000  0.40778000  0.65778000  1.0
  O2-  O57  1  0.84222000  0.40778000  0.65778000  1.0
  O2-  O58  1  0.34222000  0.90778000  0.15778000  1.0
  O2-  O58  1  0.84222000  0.90778000  0.15778000  1.0
  O2-  O59  1  0.34222000  0.90778000  0.65778000  1.0
  O2-  O59  1  0.84222000  0.90778000  0.65778000  1.0
  O2-  O60  1  0.40778000  0.34222000  0.34222000  1.0
  O2-  O60  1  0.90778000  0.34222000  0.34222000  1.0
  O2-  O61  1  0.40778000  0.34222000  0.84222000  1.0
  O2-  O61  1  0.90778000  0.34222000  0.84222000  1.0
  O2-  O62  1  0.40778000  0.84222000  0.34222000  1.0
  O2-  O62  1  0.90778000  0.84222000  0.34222000  1.0
  O2-  O63  1  0.40778000  0.84222000  0.84222000  1.0
  O2-  O63  1  0.90778000  0.84222000  0.84222000  1.0
  O2-  O64  1  0.40778000  0.34222000  0.15778000  1.0
  O2-  O64  1  0.90778000  0.34222000  0.15778000  1.0
  O2-  O65  1  0.40778000  0.34222000  0.65778000  1.0
  O2-  O65  1  0.90778000  0.34222000  0.65778000  1.0
  O2-  O66  1  0.15778000  0.34222000  0.40778000  1.0
  O2-  O66  1  0.65778000  0.34222000  0.40778000  1.0
  O2-  O67  1  0.15778000  0.34222000  0.90778000  1.0
  O2-  O67  1  0.65778000  0.34222000  0.90778000  1.0
  O2-  O68  1  0.15778000  0.84222000  0.40778000  1.0
  O2-  O68  1  0.65778000  0.84222000  0.40778000  1.0
  O2-  O69  1  0.34222000  0.90778000  0.84222000  1.0
  O2-  O69  1  0.84222000  0.90778000  0.84222000  1.0
  O2-  O70  1  0.34222000  0.15778000  0.84222000  1.0
  O2-  O70  1  0.84222000  0.15778000  0.84222000  1.0
  O2-  O71  1  0.34222000  0.65778000  0.34222000  1.0
  O2-  O71  1  0.84222000  0.65778000  0.34222000  1.0
  O2-  O72  1  0.34222000  0.65778000  0.84222000  1.0
  O2-  O72  1  0.84222000  0.65778000  0.84222000  1.0
  O2-  O73  1  0.15778000  0.40778000  0.34222000  1.0
  O2-  O73  1  0.65778000  0.40778000  0.34222000  1.0
  O2-  O74  1  0.15778000  0.40778000  0.84222000  1.0
  O2-  O74  1  0.65778000  0.40778000  0.84222000  1.0
  O2-  O75  1  0.15778000  0.90778000  0.84222000  1.0
  O2-  O75  1  0.65778000  0.90778000  0.84222000  1.0
  O2-  O76  1  0.40778000  0.15778000  0.84222000  1.0
  O2-  O76  1  0.90778000  0.15778000  0.84222000  1.0
  O2-  O77  1  0.34222000  0.34222000  0.40778000  1.0
  O2-  O77  1  0.84222000  0.34222000  0.40778000  1.0
  O2-  O78  1  0.34222000  0.84222000  0.40778000  1.0
  O2-  O78  1  0.84222000  0.84222000  0.40778000  1.0
  O2-  O79  1  0.34222000  0.84222000  0.15778000  1.0
  O2-  O79  1  0.84222000  0.84222000  0.15778000  1.0
  F-  F1  1  0.18750000  0.18750000  0.18750000  1.0
  F-  F1  1  0.68750000  0.18750000  0.18750000  1.0
  F-  F1  1  0.18750000  0.18750000  0.68750000  1.0
  F-  F1  1  0.68750000  0.18750000  0.68750000  1.0
  F-  F1  1  0.18750000  0.68750000  0.18750000  1.0
  F-  F1  1  0.68750000  0.68750000  0.18750000  1.0
  F-  F1  1  0.18750000  0.68750000  0.68750000  1.0
  F-  F1  1  0.68750000  0.68750000  0.68750000  1.0
  F-  F1  1  0.31250000  0.31250000  0.31250000  1.0
  F-  F1  1  0.81250000  0.31250000  0.31250000  1.0
  F-  F1  1  0.31250000  0.31250000  0.81250000  1.0
  F-  F1  1  0.81250000  0.31250000  0.81250000  1.0
  F-  F1  1  0.31250000  0.81250000  0.31250000  1.0
  F-  F1  1  0.81250000  0.81250000  0.31250000  1.0
  F-  F1  1  0.31250000  0.81250000  0.81250000  1.0
  F-  F1  1  0.81250000  0.81250000  0.81250000  1.0
