# generated using pymatgen
data_Li33Ge3P2(S5I)5
_symmetry_space_group_name_H-M   'P 1'
_cell_length_a   7.25823898
_cell_length_b   36.29119488
_cell_length_c   14.51647795
_cell_angle_alpha   60.00000000
_cell_angle_beta   120.00000000
_cell_angle_gamma   120.00000000
_symmetry_Int_Tables_number   1
_chemical_formula_structural   Li33Ge3P2(S5I)5
_chemical_formula_sum   'Li66 Ge6 P4 S50 I10'
_cell_volume   2703.82632316
_cell_formula_units_Z   2
loop_
 _symmetry_equiv_pos_site_id
 _symmetry_equiv_pos_as_xyz
  1  'x, y, z'
loop_
 _atom_type_symbol
 _atom_type_oxidation_number
  Li+  1.0
  Ge4+  4.0
  P5+  5.0
  S2-  -2.0
  I-  -1.0
loop_
 _atom_site_type_symbol
 _atom_site_label
 _atom_site_symmetry_multiplicity
 _atom_site_fract_x
 _atom_site_fract_y
 _atom_site_fract_z
 _atom_site_occupancy
  Li+  Li0  1  0.37960000  0.68480000  0.23890000  1.0
  Li+  Li1  1  0.37960000  0.48480000  0.23890000  1.0
  Li+  Li2  1  0.02220000  0.92408000  0.46200000  1.0
  Li+  Li3  1  0.02220000  0.92408000  0.96200000  1.0
  Li+  Li4  1  0.02220000  0.72408000  0.96200000  1.0
  Li+  Li5  1  0.02220000  0.52408000  0.96200000  1.0
  Li+  Li6  1  0.57600000  0.99556000  0.73890000  1.0
  Li+  Li7  1  0.57600000  0.99556000  0.23890000  1.0
  Li+  Li8  1  0.57600000  0.79556000  0.23890000  1.0
  Li+  Li9  1  0.57600000  0.19556000  0.23890000  1.0
  Li+  Li10  1  0.57600000  0.72408000  0.73890000  1.0
  Li+  Li11  1  0.57600000  0.32408000  0.23890000  1.0
  Li+  Li12  1  0.57600000  0.12408000  0.23890000  1.0
  Li+  Li13  1  0.02220000  0.88480000  0.73890000  1.0
  Li+  Li14  1  0.02220000  0.08480000  0.73890000  1.0
  Li+  Li15  1  0.02220000  0.88480000  0.23890000  1.0
  Li+  Li16  1  0.02220000  0.68480000  0.23890000  1.0
  Li+  Li17  1  0.02220000  0.48480000  0.23890000  1.0
  Li+  Li18  1  0.02220000  0.08480000  0.23890000  1.0
  Li+  Li19  1  0.02220000  0.92408000  0.73890000  1.0
  Li+  Li20  1  0.02220000  0.12408000  0.73890000  1.0
  Li+  Li21  1  0.02220000  0.72408000  0.23890000  1.0
  Li+  Li22  1  0.02220000  0.12408000  0.23890000  1.0
  Li+  Li23  1  0.02220000  0.88480000  0.56020000  1.0
  Li+  Li24  1  0.02220000  0.88480000  0.06020000  1.0
  Li+  Li25  1  0.02220000  0.68480000  0.06020000  1.0
  Li+  Li26  1  0.37618948  0.99980420  0.73663390  1.0
  Li+  Li27  1  0.37960000  0.79556000  0.73890000  1.0
  Li+  Li28  1  0.37960000  0.59556000  0.23890000  1.0
  Li+  Li29  1  0.02220000  0.99556000  0.46200000  1.0
  Li+  Li30  1  0.02220000  0.79556000  0.46200000  1.0
  Li+  Li31  1  0.02220000  0.39556000  0.46200000  1.0
  Li+  Li32  1  0.02502646  0.19798132  0.46305221  1.0
  Li+  Li33  1  0.02220000  0.19556000  0.96200000  1.0
  Li+  Li34  1  0.57354195  0.59522363  0.55993983  1.0
  Li+  Li35  1  0.58076039  0.18967170  0.55853556  1.0
  Li+  Li36  1  0.58004627  0.99318432  0.06042320  1.0
  Li+  Li37  1  0.57600000  0.79556000  0.06020000  1.0
  Li+  Li38  1  0.57600000  0.39556000  0.06020000  1.0
  Li+  Li39  1  0.37960000  0.39556000  0.46200000  1.0
  Li+  Li40  1  0.37960000  0.79556000  0.96200000  1.0
  Li+  Li41  1  0.37642648  0.59118788  0.96243369  1.0
  Li+  Li42  1  0.48646253  0.50451417  0.74769816  1.0
  Li+  Li43  1  0.48810000  0.30238000  0.74405000  1.0
  Li+  Li44  1  0.48810000  0.10238000  0.74405000  1.0
  Li+  Li45  1  0.48810000  0.50238000  0.24405000  1.0
  Li+  Li46  1  0.48810000  0.10238000  0.24405000  1.0
  Li+  Li47  1  0.01190000  0.50238000  0.50595000  1.0
  Li+  Li48  1  0.01190000  0.30238000  0.50595000  1.0
  Li+  Li49  1  0.01190000  0.50238000  0.00595000  1.0
  Li+  Li50  1  0.01190000  0.30238000  0.00595000  1.0
  Li+  Li51  1  0.01240677  0.10484427  0.00279939  1.0
  Li+  Li52  1  0.48810000  0.79762000  0.74405000  1.0
  Li+  Li53  1  0.48969687  0.39927017  0.74551167  1.0
  Li+  Li54  1  0.48759454  0.19873378  0.74528481  1.0
  Li+  Li55  1  0.49147754  0.59703961  0.24753183  1.0
  Li+  Li56  1  0.48788809  0.19669698  0.24189356  1.0
  Li+  Li57  1  0.01190000  0.70238000  0.74405000  1.0
  Li+  Li58  1  0.01190000  0.30238000  0.74405000  1.0
  Li+  Li59  1  0.01134250  0.09857372  0.74262582  1.0
  Li+  Li60  1  0.00964642  0.79401018  0.50450903  1.0
  Li+  Li61  1  0.01190000  0.59762000  0.00595000  1.0
  Li+  Li62  1  0.01190000  0.39762000  0.00595000  1.0
  Li+  Li63  1  0.48810000  0.99762000  0.50595000  1.0
  Li+  Li64  1  0.48740313  0.79671321  0.50302957  1.0
  Li+  Li65  1  0.48810000  0.19762000  0.00595000  1.0
  Ge4+  Ge66  1  0.50000000  0.90000000  0.50000000  1.0
  Ge4+  Ge67  1  0.50000000  0.50000000  0.50000000  1.0
  Ge4+  Ge68  1  0.49887552  0.09881306  0.49813249  1.0
  Ge4+  Ge69  1  0.50000000  0.50000000  0.00000000  1.0
  Ge4+  Ge70  1  0.49665019  0.29997773  0.00071387  1.0
  Ge4+  Ge71  1  0.49815286  0.10037917  0.00302279  1.0
  P5+  P72  1  0.50000000  0.70000000  0.50000000  1.0
  P5+  P73  1  0.49977316  0.30483172  0.50452699  1.0
  P5+  P74  1  0.50000000  0.90000000  0.00000000  1.0
  P5+  P75  1  0.50000000  0.70000000  0.00000000  1.0
  S2-  S76  1  0.61954000  0.87609200  0.67931000  1.0
  S2-  S77  1  0.61735771  0.67181030  0.67393603  1.0
  S2-  S78  1  0.61859198  0.47612752  0.67936286  1.0
  S2-  S79  1  0.61954000  0.27609200  0.67931000  1.0
  S2-  S80  1  0.61954000  0.07609200  0.67931000  1.0
  S2-  S81  1  0.62037505  0.87589791  0.17962605  1.0
  S2-  S82  1  0.61860947  0.67574641  0.17952823  1.0
  S2-  S83  1  0.61954000  0.47609200  0.17931000  1.0
  S2-  S84  1  0.61954000  0.27609200  0.17931000  1.0
  S2-  S85  1  0.61954000  0.07609200  0.17931000  1.0
  S2-  S86  1  0.61954000  0.87609200  0.44023000  1.0
  S2-  S87  1  0.61954000  0.67609200  0.44023000  1.0
  S2-  S88  1  0.61954000  0.47609200  0.44023000  1.0
  S2-  S89  1  0.61954000  0.27609200  0.44023000  1.0
  S2-  S90  1  0.61954000  0.07609200  0.44023000  1.0
  S2-  S91  1  0.61776738  0.87417107  0.93611302  1.0
  S2-  S92  1  0.61954000  0.67609200  0.94023000  1.0
  S2-  S93  1  0.61954000  0.47609200  0.94023000  1.0
  S2-  S94  1  0.61954000  0.27609200  0.94023000  1.0
  S2-  S95  1  0.61954000  0.07609200  0.94023000  1.0
  S2-  S96  1  0.61954000  0.97172400  0.44023000  1.0
  S2-  S97  1  0.61954000  0.77172400  0.44023000  1.0
  S2-  S98  1  0.61954000  0.57172400  0.44023000  1.0
  S2-  S99  1  0.61746579  0.37173637  0.43774317  1.0
  S2-  S100  1  0.61954000  0.17172400  0.44023000  1.0
  S2-  S101  1  0.61954000  0.97172400  0.94023000  1.0
  S2-  S102  1  0.61954000  0.77172400  0.94023000  1.0
  S2-  S103  1  0.61954000  0.57172400  0.94023000  1.0
  S2-  S104  1  0.61954000  0.37172400  0.94023000  1.0
  S2-  S105  1  0.61954000  0.17172400  0.94023000  1.0
  S2-  S106  1  0.14138000  0.87609200  0.44023000  1.0
  S2-  S107  1  0.14213401  0.67569094  0.44169717  1.0
  S2-  S108  1  0.14138000  0.47609200  0.44023000  1.0
  S2-  S109  1  0.14138000  0.27609200  0.44023000  1.0
  S2-  S110  1  0.14138000  0.07609200  0.44023000  1.0
  S2-  S111  1  0.14138000  0.87609200  0.94023000  1.0
  S2-  S112  1  0.14337585  0.67279576  0.94090293  1.0
  S2-  S113  1  0.14138000  0.47609200  0.94023000  1.0
  S2-  S114  1  0.14037469  0.27559558  0.94228062  1.0
  S2-  S115  1  0.14074464  0.07823671  0.93852501  1.0
  S2-  S116  1  0.00148807  0.79972652  0.74906035  1.0
  S2-  S117  1  0.25000000  0.95000000  0.62500000  1.0
  S2-  S118  1  0.25000000  0.75000000  0.62500000  1.0
  S2-  S119  1  0.25000000  0.55000000  0.62500000  1.0
  S2-  S120  1  0.24952255  0.14771313  0.62295210  1.0
  S2-  S121  1  0.25000000  0.95000000  0.12500000  1.0
  S2-  S122  1  0.24784663  0.75171071  0.12078607  1.0
  S2-  S123  1  0.25000000  0.55000000  0.12500000  1.0
  S2-  S124  1  0.24672692  0.35221242  0.12812706  1.0
  S2-  S125  1  0.25000000  0.15000000  0.12500000  1.0
  I-  I126  1  0.00000000  0.00000000  0.75000000  1.0
  I-  I127  1  0.00000000  0.60000000  0.75000000  1.0
  I-  I128  1  0.00000000  0.40000000  0.75000000  1.0
  I-  I129  1  0.00000000  0.20000000  0.75000000  1.0
  I-  I130  1  0.00000000  0.00000000  0.25000000  1.0
  I-  I131  1  0.00000000  0.80000000  0.25000000  1.0
  I-  I132  1  0.00000000  0.60000000  0.25000000  1.0
  I-  I133  1  0.00000000  0.40000000  0.25000000  1.0
  I-  I134  1  0.99912197  0.19809852  0.25271043  1.0
  I-  I135  1  0.25000000  0.35000000  0.62500000  1.0
