# generated using pymatgen
data_Li33Ge3P2(S5I)5
_symmetry_space_group_name_H-M   'P 1'
_cell_length_a   7.25823898
_cell_length_b   14.51647795
_cell_length_c   36.29119488
_cell_angle_alpha   60.00000000
_cell_angle_beta   60.00000000
_cell_angle_gamma   60.00000000
_symmetry_Int_Tables_number   1
_chemical_formula_structural   Li33Ge3P2(S5I)5
_chemical_formula_sum   'Li66 Ge6 P4 S50 I10'
_cell_volume   2703.82632316
_cell_formula_units_Z   2
loop_
 _symmetry_equiv_pos_site_id
 _symmetry_equiv_pos_as_xyz
  1  'x, y, z'
loop_
 _atom_type_symbol
 _atom_type_oxidation_number
  Li+  1.0
  Ge4+  4.0
  P5+  5.0
  S2-  -2.0
  I-  -1.0
loop_
 _atom_site_type_symbol
 _atom_site_label
 _atom_site_symmetry_multiplicity
 _atom_site_fract_x
 _atom_site_fract_y
 _atom_site_fract_z
 _atom_site_occupancy
  Li+  Li0  1  0.37960000  0.51110000  0.31520000  1.0
  Li+  Li1  1  0.37960000  0.51110000  0.51520000  1.0
  Li+  Li2  1  0.02220000  0.28800000  0.07592000  1.0
  Li+  Li3  1  0.02220000  0.78800000  0.07592000  1.0
  Li+  Li4  1  0.02220000  0.78800000  0.27592000  1.0
  Li+  Li5  1  0.02220000  0.78800000  0.47592000  1.0
  Li+  Li6  1  0.57600000  0.01110000  0.00444000  1.0
  Li+  Li7  1  0.57600000  0.51110000  0.00444000  1.0
  Li+  Li8  1  0.57600000  0.51110000  0.20444000  1.0
  Li+  Li9  1  0.57600000  0.51110000  0.80444000  1.0
  Li+  Li10  1  0.57600000  0.01110000  0.27592000  1.0
  Li+  Li11  1  0.57600000  0.51110000  0.67592000  1.0
  Li+  Li12  1  0.57600000  0.51110000  0.87592000  1.0
  Li+  Li13  1  0.02220000  0.01110000  0.11520000  1.0
  Li+  Li14  1  0.02220000  0.01110000  0.91520000  1.0
  Li+  Li15  1  0.02220000  0.51110000  0.11520000  1.0
  Li+  Li16  1  0.02220000  0.51110000  0.31520000  1.0
  Li+  Li17  1  0.02220000  0.51110000  0.51520000  1.0
  Li+  Li18  1  0.02220000  0.51110000  0.91520000  1.0
  Li+  Li19  1  0.02220000  0.01110000  0.07592000  1.0
  Li+  Li20  1  0.02220000  0.01110000  0.87592000  1.0
  Li+  Li21  1  0.02220000  0.51110000  0.27592000  1.0
  Li+  Li22  1  0.02220000  0.51110000  0.87592000  1.0
  Li+  Li23  1  0.02220000  0.18980000  0.11520000  1.0
  Li+  Li24  1  0.02220000  0.68980000  0.11520000  1.0
  Li+  Li25  1  0.02220000  0.68980000  0.31520000  1.0
  Li+  Li26  1  0.37960000  0.01110000  0.00444000  1.0
  Li+  Li27  1  0.37960000  0.01110000  0.20444000  1.0
  Li+  Li28  1  0.37960000  0.51110000  0.40444000  1.0
  Li+  Li29  1  0.02220000  0.28800000  0.00444000  1.0
  Li+  Li30  1  0.02220000  0.28800000  0.20444000  1.0
  Li+  Li31  1  0.02220000  0.28800000  0.60444000  1.0
  Li+  Li32  1  0.02220000  0.28800000  0.80444000  1.0
  Li+  Li33  1  0.02220000  0.78800000  0.80444000  1.0
  Li+  Li34  1  0.57600000  0.18980000  0.40444000  1.0
  Li+  Li35  1  0.57600000  0.18980000  0.80444000  1.0
  Li+  Li36  1  0.57600000  0.68980000  0.00444000  1.0
  Li+  Li37  1  0.57600000  0.68980000  0.20444000  1.0
  Li+  Li38  1  0.57600000  0.68980000  0.60444000  1.0
  Li+  Li39  1  0.37960000  0.28800000  0.60444000  1.0
  Li+  Li40  1  0.37960000  0.78800000  0.20444000  1.0
  Li+  Li41  1  0.37960000  0.78800000  0.40444000  1.0
  Li+  Li42  1  0.48810000  0.00595000  0.49762000  1.0
  Li+  Li43  1  0.48810000  0.00595000  0.69762000  1.0
  Li+  Li44  1  0.48810000  0.00595000  0.89762000  1.0
  Li+  Li45  1  0.48810000  0.50595000  0.49762000  1.0
  Li+  Li46  1  0.48810000  0.50595000  0.89762000  1.0
  Li+  Li47  1  0.01190000  0.24405000  0.49762000  1.0
  Li+  Li48  1  0.01190000  0.24405000  0.69762000  1.0
  Li+  Li49  1  0.01190000  0.74405000  0.49762000  1.0
  Li+  Li50  1  0.01190000  0.74405000  0.69762000  1.0
  Li+  Li51  1  0.01190000  0.74405000  0.89762000  1.0
  Li+  Li52  1  0.48810000  0.00595000  0.20238000  1.0
  Li+  Li53  1  0.48810000  0.00595000  0.60238000  1.0
  Li+  Li54  1  0.48810000  0.00595000  0.80238000  1.0
  Li+  Li55  1  0.48810000  0.50595000  0.40238000  1.0
  Li+  Li56  1  0.48810000  0.50595000  0.80238000  1.0
  Li+  Li57  1  0.01190000  0.00595000  0.29762000  1.0
  Li+  Li58  1  0.01190000  0.00595000  0.69762000  1.0
  Li+  Li59  1  0.01190000  0.00595000  0.89762000  1.0
  Li+  Li60  1  0.01190000  0.24405000  0.20238000  1.0
  Li+  Li61  1  0.01190000  0.74405000  0.40238000  1.0
  Li+  Li62  1  0.01190000  0.74405000  0.60238000  1.0
  Li+  Li63  1  0.48810000  0.24405000  0.00238000  1.0
  Li+  Li64  1  0.48810000  0.24405000  0.20238000  1.0
  Li+  Li65  1  0.48810000  0.74405000  0.80238000  1.0
  Ge4+  Ge66  1  0.50000000  0.25000000  0.10000000  1.0
  Ge4+  Ge67  1  0.50000000  0.25000000  0.50000000  1.0
  Ge4+  Ge68  1  0.50000000  0.25000000  0.90000000  1.0
  Ge4+  Ge69  1  0.50000000  0.75000000  0.50000000  1.0
  Ge4+  Ge70  1  0.50000000  0.75000000  0.70000000  1.0
  Ge4+  Ge71  1  0.50000000  0.75000000  0.90000000  1.0
  P5+  P72  1  0.50000000  0.25000000  0.30000000  1.0
  P5+  P73  1  0.50000000  0.25000000  0.70000000  1.0
  P5+  P74  1  0.50000000  0.75000000  0.10000000  1.0
  P5+  P75  1  0.50000000  0.75000000  0.30000000  1.0
  S2-  S2  1  0.61954000  0.07069000  0.12390800  1.0
  S2-  S2  1  0.61954000  0.07069000  0.32390800  1.0
  S2-  S2  1  0.61954000  0.07069000  0.52390800  1.0
  S2-  S2  1  0.61954000  0.07069000  0.72390800  1.0
  S2-  S2  1  0.61954000  0.07069000  0.92390800  1.0
  S2-  S2  1  0.61954000  0.57069000  0.12390800  1.0
  S2-  S2  1  0.61954000  0.57069000  0.32390800  1.0
  S2-  S2  1  0.61954000  0.57069000  0.52390800  1.0
  S2-  S2  1  0.61954000  0.57069000  0.72390800  1.0
  S2-  S2  1  0.61954000  0.57069000  0.92390800  1.0
  S2-  S2  1  0.61954000  0.30977000  0.12390800  1.0
  S2-  S2  1  0.61954000  0.30977000  0.32390800  1.0
  S2-  S2  1  0.61954000  0.30977000  0.52390800  1.0
  S2-  S2  1  0.61954000  0.30977000  0.72390800  1.0
  S2-  S2  1  0.61954000  0.30977000  0.92390800  1.0
  S2-  S2  1  0.61954000  0.80977000  0.12390800  1.0
  S2-  S2  1  0.61954000  0.80977000  0.32390800  1.0
  S2-  S2  1  0.61954000  0.80977000  0.52390800  1.0
  S2-  S2  1  0.61954000  0.80977000  0.72390800  1.0
  S2-  S2  1  0.61954000  0.80977000  0.92390800  1.0
  S2-  S2  1  0.61954000  0.30977000  0.02827600  1.0
  S2-  S2  1  0.61954000  0.30977000  0.22827600  1.0
  S2-  S2  1  0.61954000  0.30977000  0.42827600  1.0
  S2-  S2  1  0.61954000  0.30977000  0.62827600  1.0
  S2-  S2  1  0.61954000  0.30977000  0.82827600  1.0
  S2-  S2  1  0.61954000  0.80977000  0.02827600  1.0
  S2-  S2  1  0.61954000  0.80977000  0.22827600  1.0
  S2-  S2  1  0.61954000  0.80977000  0.42827600  1.0
  S2-  S2  1  0.61954000  0.80977000  0.62827600  1.0
  S2-  S2  1  0.61954000  0.80977000  0.82827600  1.0
  S2-  S2  1  0.14138000  0.30977000  0.12390800  1.0
  S2-  S2  1  0.14138000  0.30977000  0.32390800  1.0
  S2-  S2  1  0.14138000  0.30977000  0.52390800  1.0
  S2-  S2  1  0.14138000  0.30977000  0.72390800  1.0
  S2-  S2  1  0.14138000  0.30977000  0.92390800  1.0
  S2-  S2  1  0.14138000  0.80977000  0.12390800  1.0
  S2-  S2  1  0.14138000  0.80977000  0.32390800  1.0
  S2-  S2  1  0.14138000  0.80977000  0.52390800  1.0
  S2-  S2  1  0.14138000  0.80977000  0.72390800  1.0
  S2-  S2  1  0.14138000  0.80977000  0.92390800  1.0
  S2-  S116  1  0.00000000  0.00000000  0.20000000  1.0
  S2-  S117  1  0.25000000  0.12500000  0.05000000  1.0
  S2-  S118  1  0.25000000  0.12500000  0.25000000  1.0
  S2-  S119  1  0.25000000  0.12500000  0.45000000  1.0
  S2-  S120  1  0.25000000  0.12500000  0.85000000  1.0
  S2-  S121  1  0.25000000  0.62500000  0.05000000  1.0
  S2-  S122  1  0.25000000  0.62500000  0.25000000  1.0
  S2-  S123  1  0.25000000  0.62500000  0.45000000  1.0
  S2-  S124  1  0.25000000  0.62500000  0.65000000  1.0
  S2-  S125  1  0.25000000  0.62500000  0.85000000  1.0
  I-  I126  1  0.00000000  0.00000000  0.00000000  1.0
  I-  I127  1  0.00000000  0.00000000  0.40000000  1.0
  I-  I128  1  0.00000000  0.00000000  0.60000000  1.0
  I-  I129  1  0.00000000  0.00000000  0.80000000  1.0
  I-  I130  1  0.00000000  0.50000000  0.00000000  1.0
  I-  I131  1  0.00000000  0.50000000  0.20000000  1.0
  I-  I132  1  0.00000000  0.50000000  0.40000000  1.0
  I-  I133  1  0.00000000  0.50000000  0.60000000  1.0
  I-  I134  1  0.00000000  0.50000000  0.80000000  1.0
  I-  I135  1  0.25000000  0.12500000  0.65000000  1.0
