# generated using pymatgen
data_Li13Ti17Al3(PO4)30
_symmetry_space_group_name_H-M   'P 1'
_cell_length_a   8.50594445
_cell_length_b   42.52972223
_cell_length_c   8.50594445
_cell_angle_alpha   60.02999086
_cell_angle_beta   119.97000914
_cell_angle_gamma   119.97000914
_symmetry_Int_Tables_number   1
_chemical_formula_structural   Li13Ti17Al3(PO4)30
_chemical_formula_sum   'Li13 Ti17 Al3 P30 O120'
_cell_volume   2177.29754399
_cell_formula_units_Z   1
loop_
 _symmetry_equiv_pos_site_id
 _symmetry_equiv_pos_as_xyz
  1  'x, y, z'
loop_
 _atom_type_symbol
 _atom_type_oxidation_number
  Li+  1.0
  Ti4+  4.0
  Al3+  3.0
  P5+  5.0
  O2-  -2.0
loop_
 _atom_site_type_symbol
 _atom_site_label
 _atom_site_symmetry_multiplicity
 _atom_site_fract_x
 _atom_site_fract_y
 _atom_site_fract_z
 _atom_site_occupancy
  Li+  Li0  1  0.49973669  0.89855200  0.25101623  1.0
  Li+  Li1  1  0.50000000  0.70000000  0.25000000  1.0
  Li+  Li2  1  0.50000000  0.50000000  0.25000000  1.0
  Li+  Li3  1  0.50237540  0.29864656  0.24723031  1.0
  Li+  Li4  1  0.50000000  0.10000000  0.25000000  1.0
  Li+  Li5  1  0.00000000  0.00000000  0.75000000  1.0
  Li+  Li6  1  0.00000000  0.80000000  0.75000000  1.0
  Li+  Li7  1  0.99491326  0.59946737  0.75053083  1.0
  Li+  Li8  1  0.00000000  0.40000000  0.75000000  1.0
  Li+  Li9  1  0.00000000  0.20000000  0.75000000  1.0
  Li+  Li10  1  0.17400000  0.24120000  0.38600000  1.0
  Li+  Li11  1  0.86400000  0.34120000  0.07600000  1.0
  Li+  Li12  1  0.32600000  0.17280000  0.04400000  1.0
  Ti4+  Ti13  1  0.35775338  0.92865278  0.39570486  1.0
  Ti4+  Ti14  1  0.35846000  0.72830800  0.39154000  1.0
  Ti4+  Ti15  1  0.36043039  0.52734448  0.39178132  1.0
  Ti4+  Ti16  1  0.35846000  0.12830800  0.39154000  1.0
  Ti4+  Ti17  1  0.85426702  0.82712465  0.88889130  1.0
  Ti4+  Ti18  1  0.85846000  0.62830800  0.89154000  1.0
  Ti4+  Ti19  1  0.85687592  0.42471308  0.88902009  1.0
  Ti4+  Ti20  1  0.85846000  0.22830800  0.89154000  1.0
  Ti4+  Ti21  1  0.85846000  0.02830800  0.89154000  1.0
  Ti4+  Ti22  1  0.64154000  0.87169200  0.10846000  1.0
  Ti4+  Ti23  1  0.64154000  0.67169200  0.10846000  1.0
  Ti4+  Ti24  1  0.64154000  0.47169200  0.10846000  1.0
  Ti4+  Ti25  1  0.14154000  0.97169200  0.60846000  1.0
  Ti4+  Ti26  1  0.14154000  0.77169200  0.60846000  1.0
  Ti4+  Ti27  1  0.14154000  0.57169200  0.60846000  1.0
  Ti4+  Ti28  1  0.13847195  0.37010534  0.60810124  1.0
  Ti4+  Ti29  1  0.14255174  0.17330835  0.60740655  1.0
  Al3+  Al30  1  0.35846000  0.32830800  0.39154000  1.0
  Al3+  Al31  1  0.64154000  0.27169200  0.10846000  1.0
  Al3+  Al32  1  0.64154000  0.07169200  0.10846000  1.0
  P5+  P33  1  0.53870000  0.95000000  0.78870000  1.0
  P5+  P34  1  0.53870000  0.75000000  0.78870000  1.0
  P5+  P35  1  0.53870000  0.55000000  0.78870000  1.0
  P5+  P36  1  0.53956876  0.35007420  0.78813836  1.0
  P5+  P37  1  0.54214209  0.14857708  0.79046130  1.0
  P5+  P38  1  0.96130000  0.89226000  0.50000000  1.0
  P5+  P39  1  0.95888839  0.68873924  0.49891140  1.0
  P5+  P40  1  0.96130000  0.49226000  0.50000000  1.0
  P5+  P41  1  0.96130000  0.29226000  0.50000000  1.0
  P5+  P42  1  0.96130000  0.09226000  0.50000000  1.0
  P5+  P43  1  0.25000000  0.80774000  0.21130000  1.0
  P5+  P44  1  0.24751995  0.60892126  0.21112890  1.0
  P5+  P45  1  0.25000000  0.40774000  0.21130000  1.0
  P5+  P46  1  0.25000000  0.20774000  0.21130000  1.0
  P5+  P47  1  0.25000000  0.00774000  0.21130000  1.0
  P5+  P48  1  0.03827485  0.90874698  0.99623965  1.0
  P5+  P49  1  0.03870000  0.70774000  0.00000000  1.0
  P5+  P50  1  0.03870000  0.50774000  0.00000000  1.0
  P5+  P51  1  0.03870000  0.30774000  0.00000000  1.0
  P5+  P52  1  0.03870000  0.10774000  0.00000000  1.0
  P5+  P53  1  0.75000000  0.99226000  0.28870000  1.0
  P5+  P54  1  0.74878335  0.79376190  0.29076234  1.0
  P5+  P55  1  0.75000000  0.59226000  0.28870000  1.0
  P5+  P56  1  0.75000000  0.39226000  0.28870000  1.0
  P5+  P57  1  0.75000000  0.19226000  0.28870000  1.0
  P5+  P58  1  0.46130000  0.85000000  0.71130000  1.0
  P5+  P59  1  0.46130000  0.65000000  0.71130000  1.0
  P5+  P60  1  0.46107732  0.45129239  0.71117926  1.0
  P5+  P61  1  0.46130000  0.25000000  0.71130000  1.0
  P5+  P62  1  0.46360995  0.04986869  0.71311169  1.0
  O2-  O63  1  0.50410000  0.93956000  0.62450000  1.0
  O2-  O64  1  0.50410000  0.73956000  0.62450000  1.0
  O2-  O65  1  0.50410000  0.53956000  0.62450000  1.0
  O2-  O66  1  0.50381015  0.33970369  0.62513891  1.0
  O2-  O67  1  0.50410000  0.13956000  0.62450000  1.0
  O2-  O68  1  0.12550000  0.89918000  0.44780000  1.0
  O2-  O69  1  0.12550000  0.69918000  0.44780000  1.0
  O2-  O70  1  0.12248751  0.49790727  0.45178097  1.0
  O2-  O71  1  0.12550000  0.29918000  0.44780000  1.0
  O2-  O72  1  0.12862457  0.09438242  0.44341188  1.0
  O2-  O73  1  0.30220000  0.97490000  0.24590000  1.0
  O2-  O74  1  0.29652506  0.77240480  0.24513200  1.0
  O2-  O75  1  0.30220000  0.57490000  0.24590000  1.0
  O2-  O76  1  0.30232677  0.37507161  0.24428380  1.0
  O2-  O77  1  0.30220000  0.17490000  0.24590000  1.0
  O2-  O78  1  0.00748584  0.87732845  0.94638449  1.0
  O2-  O79  1  0.00410000  0.67490000  0.94780000  1.0
  O2-  O80  1  0.00410000  0.47490000  0.94780000  1.0
  O2-  O81  1  0.00410000  0.27490000  0.94780000  1.0
  O2-  O82  1  0.00371620  0.07566407  0.95091467  1.0
  O2-  O83  1  0.80220000  0.99918000  0.12450000  1.0
  O2-  O84  1  0.80220000  0.79918000  0.12450000  1.0
  O2-  O85  1  0.80220000  0.59918000  0.12450000  1.0
  O2-  O86  1  0.80220000  0.39918000  0.12450000  1.0
  O2-  O87  1  0.80220000  0.19918000  0.12450000  1.0
  O2-  O88  1  0.62761253  0.83315671  0.74962991  1.0
  O2-  O89  1  0.62550000  0.63956000  0.74590000  1.0
  O2-  O90  1  0.62550000  0.43956000  0.74590000  1.0
  O2-  O91  1  0.62550000  0.23956000  0.74590000  1.0
  O2-  O92  1  0.62550000  0.03956000  0.74590000  1.0
  O2-  O93  1  0.49590000  0.86044000  0.87550000  1.0
  O2-  O94  1  0.49590000  0.66044000  0.87550000  1.0
  O2-  O95  1  0.49590000  0.46044000  0.87550000  1.0
  O2-  O96  1  0.49590000  0.26044000  0.87550000  1.0
  O2-  O97  1  0.49590000  0.06044000  0.87550000  1.0
  O2-  O98  1  0.87661047  0.89752510  0.05246087  1.0
  O2-  O99  1  0.87450000  0.70082000  0.05220000  1.0
  O2-  O100  1  0.87450000  0.50082000  0.05220000  1.0
  O2-  O101  1  0.87450000  0.30082000  0.05220000  1.0
  O2-  O102  1  0.87463742  0.10108496  0.05526038  1.0
  O2-  O103  1  0.69780000  0.82510000  0.25410000  1.0
  O2-  O104  1  0.69780000  0.62510000  0.25410000  1.0
  O2-  O105  1  0.69835928  0.42692704  0.25715080  1.0
  O2-  O106  1  0.69780000  0.22510000  0.25410000  1.0
  O2-  O107  1  0.69780000  0.02510000  0.25410000  1.0
  O2-  O108  1  0.99590000  0.92510000  0.55220000  1.0
  O2-  O109  1  0.99590000  0.72510000  0.55220000  1.0
  O2-  O110  1  0.00248107  0.52317210  0.55303774  1.0
  O2-  O111  1  0.99590000  0.32510000  0.55220000  1.0
  O2-  O112  1  0.99590000  0.12510000  0.55220000  1.0
  O2-  O113  1  0.19780000  0.80082000  0.37550000  1.0
  O2-  O114  1  0.19941513  0.60272904  0.37288152  1.0
  O2-  O115  1  0.19780000  0.40082000  0.37550000  1.0
  O2-  O116  1  0.19780000  0.20082000  0.37550000  1.0
  O2-  O117  1  0.19780000  0.00082000  0.37550000  1.0
  O2-  O118  1  0.37411827  0.96184683  0.75496367  1.0
  O2-  O119  1  0.37450000  0.76044000  0.75410000  1.0
  O2-  O120  1  0.37450000  0.56044000  0.75410000  1.0
  O2-  O121  1  0.37450000  0.36044000  0.75410000  1.0
  O2-  O122  1  0.37450000  0.16044000  0.75410000  1.0
  O2-  O123  1  0.94300000  0.85366000  0.66750000  1.0
  O2-  O124  1  0.94300000  0.65366000  0.66750000  1.0
  O2-  O125  1  0.94084764  0.45483469  0.66776165  1.0
  O2-  O126  1  0.94300000  0.25366000  0.66750000  1.0
  O2-  O127  1  0.94300000  0.05366000  0.66750000  1.0
  O2-  O128  1  0.08250000  0.81140000  0.01830000  1.0
  O2-  O129  1  0.08334307  0.61015166  0.01721826  1.0
  O2-  O130  1  0.08250000  0.41140000  0.01830000  1.0
  O2-  O131  1  0.08250000  0.21140000  0.01830000  1.0
  O2-  O132  1  0.08250000  0.01140000  0.01830000  1.0
  O2-  O133  1  0.73170000  0.98350000  0.80700000  1.0
  O2-  O134  1  0.73170000  0.78350000  0.80700000  1.0
  O2-  O135  1  0.73170000  0.58350000  0.80700000  1.0
  O2-  O136  1  0.73170000  0.38350000  0.80700000  1.0
  O2-  O137  1  0.73170000  0.18350000  0.80700000  1.0
  O2-  O138  1  0.44300000  0.88350000  0.51830000  1.0
  O2-  O139  1  0.44300000  0.68350000  0.51830000  1.0
  O2-  O140  1  0.44300000  0.48350000  0.51830000  1.0
  O2-  O141  1  0.44300000  0.28350000  0.51830000  1.0
  O2-  O142  1  0.44300000  0.08350000  0.51830000  1.0
  O2-  O143  1  0.23186260  0.90651139  0.16590092  1.0
  O2-  O144  1  0.23170000  0.71140000  0.16750000  1.0
  O2-  O145  1  0.22564317  0.50861744  0.16739964  1.0
  O2-  O146  1  0.22911348  0.31339596  0.17165576  1.0
  O2-  O147  1  0.23170000  0.11140000  0.16750000  1.0
  O2-  O148  1  0.58250000  0.95366000  0.30700000  1.0
  O2-  O149  1  0.58250000  0.75366000  0.30700000  1.0
  O2-  O150  1  0.58250000  0.55366000  0.30700000  1.0
  O2-  O151  1  0.58250000  0.35366000  0.30700000  1.0
  O2-  O152  1  0.58739217  0.15941587  0.30569709  1.0
  O2-  O153  1  0.05700000  0.94634000  0.83250000  1.0
  O2-  O154  1  0.05700000  0.74634000  0.83250000  1.0
  O2-  O155  1  0.05341471  0.54534992  0.83113753  1.0
  O2-  O156  1  0.05700000  0.34634000  0.83250000  1.0
  O2-  O157  1  0.05700000  0.14634000  0.83250000  1.0
  O2-  O158  1  0.91750000  0.98860000  0.48170000  1.0
  O2-  O159  1  0.91528875  0.78553905  0.47982799  1.0
  O2-  O160  1  0.91750000  0.58860000  0.48170000  1.0
  O2-  O161  1  0.91750000  0.38860000  0.48170000  1.0
  O2-  O162  1  0.91649445  0.19001709  0.47840767  1.0
  O2-  O163  1  0.27113714  0.81401243  0.69215397  1.0
  O2-  O164  1  0.26830000  0.61650000  0.69300000  1.0
  O2-  O165  1  0.26830000  0.41650000  0.69300000  1.0
  O2-  O166  1  0.26730362  0.21243341  0.69526585  1.0
  O2-  O167  1  0.26830000  0.01650000  0.69300000  1.0
  O2-  O168  1  0.55700000  0.91650000  0.98170000  1.0
  O2-  O169  1  0.55700000  0.71650000  0.98170000  1.0
  O2-  O170  1  0.55700000  0.51650000  0.98170000  1.0
  O2-  O171  1  0.55700000  0.31650000  0.98170000  1.0
  O2-  O172  1  0.55700000  0.11650000  0.98170000  1.0
  O2-  O173  1  0.76830000  0.88860000  0.33250000  1.0
  O2-  O174  1  0.76988027  0.68981406  0.33342058  1.0
  O2-  O175  1  0.76830000  0.48860000  0.33250000  1.0
  O2-  O176  1  0.76830000  0.28860000  0.33250000  1.0
  O2-  O177  1  0.76416398  0.08982524  0.33249970  1.0
  O2-  O178  1  0.41682019  0.85194454  0.19455138  1.0
  O2-  O179  1  0.41750000  0.64634000  0.19300000  1.0
  O2-  O180  1  0.41750000  0.44634000  0.19300000  1.0
  O2-  O181  1  0.41750000  0.24634000  0.19300000  1.0
  O2-  O182  1  0.41750000  0.04634000  0.19300000  1.0
