# generated using pymatgen
data_Li13Ti17Al3(PO4)30
_symmetry_space_group_name_H-M   'P 1'
_cell_length_a   8.46978571
_cell_length_b   8.46978571
_cell_length_c   42.34892852
_cell_angle_alpha   119.97000914
_cell_angle_beta   119.97000914
_cell_angle_gamma   60.02999086
_symmetry_Int_Tables_number   1
_chemical_formula_structural   Li13Ti17Al3(PO4)30
_chemical_formula_sum   'Li13 Ti17 Al3 P30 O120'
_cell_volume   2149.64836121
_cell_formula_units_Z   1
loop_
 _symmetry_equiv_pos_site_id
 _symmetry_equiv_pos_as_xyz
  1  'x, y, z'
loop_
 _atom_type_symbol
 _atom_type_oxidation_number
  Li+  1.0
  Ti4+  4.0
  Al3+  3.0
  P5+  5.0
  O2-  -2.0
loop_
 _atom_site_type_symbol
 _atom_site_label
 _atom_site_symmetry_multiplicity
 _atom_site_fract_x
 _atom_site_fract_y
 _atom_site_fract_z
 _atom_site_occupancy
  Li+  Li0  1  0.50000000  0.16666667  0.10000000  1.0
  Li+  Li1  1  0.50000000  0.16666667  0.30000000  1.0
  Li+  Li2  1  0.50000000  0.16666667  0.50000000  1.0
  Li+  Li3  1  0.50000000  0.16666667  0.70000000  1.0
  Li+  Li4  1  0.50000000  0.16666667  0.90000000  1.0
  Li+  Li5  1  0.00000000  0.66666667  0.00000000  1.0
  Li+  Li6  1  0.00000000  0.66666667  0.20000000  1.0
  Li+  Li7  1  0.00000000  0.66666667  0.40000000  1.0
  Li+  Li8  1  0.00000000  0.66666667  0.60000000  1.0
  Li+  Li9  1  0.00000000  0.66666667  0.80000000  1.0
  Li+  Li10  1  0.63600000  0.49266667  0.75880000  1.0
  Li+  Li11  1  0.32600000  0.80266667  0.65880000  1.0
  Li+  Li12  1  0.29400000  0.34066667  0.82720000  1.0
  Ti4+  Ti13  1  0.64154000  0.30820667  0.07169200  1.0
  Ti4+  Ti14  1  0.64154000  0.30820667  0.27169200  1.0
  Ti4+  Ti15  1  0.64154000  0.30820667  0.47169200  1.0
  Ti4+  Ti16  1  0.64154000  0.30820667  0.87169200  1.0
  Ti4+  Ti17  1  0.14154000  0.80820667  0.17169200  1.0
  Ti4+  Ti18  1  0.14154000  0.80820667  0.37169200  1.0
  Ti4+  Ti19  1  0.14154000  0.80820667  0.57169200  1.0
  Ti4+  Ti20  1  0.14154000  0.80820667  0.77169200  1.0
  Ti4+  Ti21  1  0.14154000  0.80820667  0.97169200  1.0
  Ti4+  Ti22  1  0.35846000  0.02512667  0.12830800  1.0
  Ti4+  Ti23  1  0.35846000  0.02512667  0.32830800  1.0
  Ti4+  Ti24  1  0.35846000  0.02512667  0.52830800  1.0
  Ti4+  Ti25  1  0.85846000  0.52512667  0.02830800  1.0
  Ti4+  Ti26  1  0.85846000  0.52512667  0.22830800  1.0
  Ti4+  Ti27  1  0.85846000  0.52512667  0.42830800  1.0
  Ti4+  Ti28  1  0.85846000  0.52512667  0.62830800  1.0
  Ti4+  Ti29  1  0.85846000  0.52512667  0.82830800  1.0
  Al3+  Al30  1  0.64154000  0.30820667  0.67169200  1.0
  Al3+  Al31  1  0.35846000  0.02512667  0.72830800  1.0
  Al3+  Al32  1  0.35846000  0.02512667  0.92830800  1.0
  P5+  P33  1  0.03870000  0.12796667  0.05000000  1.0
  P5+  P34  1  0.03870000  0.12796667  0.25000000  1.0
  P5+  P35  1  0.03870000  0.12796667  0.45000000  1.0
  P5+  P36  1  0.03870000  0.12796667  0.65000000  1.0
  P5+  P37  1  0.03870000  0.12796667  0.85000000  1.0
  P5+  P38  1  0.75000000  0.70536667  0.10774000  1.0
  P5+  P39  1  0.75000000  0.70536667  0.30774000  1.0
  P5+  P40  1  0.75000000  0.70536667  0.50774000  1.0
  P5+  P41  1  0.75000000  0.70536667  0.70774000  1.0
  P5+  P42  1  0.75000000  0.70536667  0.90774000  1.0
  P5+  P43  1  0.46130000  0.41666667  0.19226000  1.0
  P5+  P44  1  0.46130000  0.41666667  0.39226000  1.0
  P5+  P45  1  0.46130000  0.41666667  0.59226000  1.0
  P5+  P46  1  0.46130000  0.41666667  0.79226000  1.0
  P5+  P47  1  0.46130000  0.41666667  0.99226000  1.0
  P5+  P48  1  0.25000000  0.62796667  0.09226000  1.0
  P5+  P49  1  0.25000000  0.62796667  0.29226000  1.0
  P5+  P50  1  0.25000000  0.62796667  0.49226000  1.0
  P5+  P51  1  0.25000000  0.62796667  0.69226000  1.0
  P5+  P52  1  0.25000000  0.62796667  0.89226000  1.0
  P5+  P53  1  0.53870000  0.91666667  0.00774000  1.0
  P5+  P54  1  0.53870000  0.91666667  0.20774000  1.0
  P5+  P55  1  0.53870000  0.91666667  0.40774000  1.0
  P5+  P56  1  0.53870000  0.91666667  0.60774000  1.0
  P5+  P57  1  0.53870000  0.91666667  0.80774000  1.0
  P5+  P58  1  0.96130000  0.20536667  0.15000000  1.0
  P5+  P59  1  0.96130000  0.20536667  0.35000000  1.0
  P5+  P60  1  0.96130000  0.20536667  0.55000000  1.0
  P5+  P61  1  0.96130000  0.20536667  0.75000000  1.0
  P5+  P62  1  0.96130000  0.20536667  0.95000000  1.0
  O2-  O63  1  0.87450000  0.16256667  0.06044000  1.0
  O2-  O64  1  0.87450000  0.16256667  0.26044000  1.0
  O2-  O65  1  0.87450000  0.16256667  0.46044000  1.0
  O2-  O66  1  0.87450000  0.16256667  0.66044000  1.0
  O2-  O67  1  0.87450000  0.16256667  0.86044000  1.0
  O2-  O68  1  0.69780000  0.54116667  0.10082000  1.0
  O2-  O69  1  0.69780000  0.54116667  0.30082000  1.0
  O2-  O70  1  0.69780000  0.54116667  0.50082000  1.0
  O2-  O71  1  0.69780000  0.54116667  0.70082000  1.0
  O2-  O72  1  0.69780000  0.54116667  0.90082000  1.0
  O2-  O73  1  0.49590000  0.36446667  0.02510000  1.0
  O2-  O74  1  0.49590000  0.36446667  0.22510000  1.0
  O2-  O75  1  0.49590000  0.36446667  0.42510000  1.0
  O2-  O76  1  0.49590000  0.36446667  0.62510000  1.0
  O2-  O77  1  0.49590000  0.36446667  0.82510000  1.0
  O2-  O78  1  0.19780000  0.66256667  0.12510000  1.0
  O2-  O79  1  0.19780000  0.66256667  0.32510000  1.0
  O2-  O80  1  0.19780000  0.66256667  0.52510000  1.0
  O2-  O81  1  0.19780000  0.66256667  0.72510000  1.0
  O2-  O82  1  0.19780000  0.66256667  0.92510000  1.0
  O2-  O83  1  0.37450000  0.86446667  0.00082000  1.0
  O2-  O84  1  0.37450000  0.86446667  0.20082000  1.0
  O2-  O85  1  0.37450000  0.86446667  0.40082000  1.0
  O2-  O86  1  0.37450000  0.86446667  0.60082000  1.0
  O2-  O87  1  0.37450000  0.86446667  0.80082000  1.0
  O2-  O88  1  0.99590000  0.04116667  0.16044000  1.0
  O2-  O89  1  0.99590000  0.04116667  0.36044000  1.0
  O2-  O90  1  0.99590000  0.04116667  0.56044000  1.0
  O2-  O91  1  0.99590000  0.04116667  0.76044000  1.0
  O2-  O92  1  0.99590000  0.04116667  0.96044000  1.0
  O2-  O93  1  0.12550000  0.17076667  0.13956000  1.0
  O2-  O94  1  0.12550000  0.17076667  0.33956000  1.0
  O2-  O95  1  0.12550000  0.17076667  0.53956000  1.0
  O2-  O96  1  0.12550000  0.17076667  0.73956000  1.0
  O2-  O97  1  0.12550000  0.17076667  0.93956000  1.0
  O2-  O98  1  0.30220000  0.79216667  0.09918000  1.0
  O2-  O99  1  0.30220000  0.79216667  0.29918000  1.0
  O2-  O100  1  0.30220000  0.79216667  0.49918000  1.0
  O2-  O101  1  0.30220000  0.79216667  0.69918000  1.0
  O2-  O102  1  0.30220000  0.79216667  0.89918000  1.0
  O2-  O103  1  0.50410000  0.96886667  0.17490000  1.0
  O2-  O104  1  0.50410000  0.96886667  0.37490000  1.0
  O2-  O105  1  0.50410000  0.96886667  0.57490000  1.0
  O2-  O106  1  0.50410000  0.96886667  0.77490000  1.0
  O2-  O107  1  0.50410000  0.96886667  0.97490000  1.0
  O2-  O108  1  0.80220000  0.67076667  0.07490000  1.0
  O2-  O109  1  0.80220000  0.67076667  0.27490000  1.0
  O2-  O110  1  0.80220000  0.67076667  0.47490000  1.0
  O2-  O111  1  0.80220000  0.67076667  0.67490000  1.0
  O2-  O112  1  0.80220000  0.67076667  0.87490000  1.0
  O2-  O113  1  0.62550000  0.46886667  0.19918000  1.0
  O2-  O114  1  0.62550000  0.46886667  0.39918000  1.0
  O2-  O115  1  0.62550000  0.46886667  0.59918000  1.0
  O2-  O116  1  0.62550000  0.46886667  0.79918000  1.0
  O2-  O117  1  0.62550000  0.46886667  0.99918000  1.0
  O2-  O118  1  0.00410000  0.29216667  0.03956000  1.0
  O2-  O119  1  0.00410000  0.29216667  0.23956000  1.0
  O2-  O120  1  0.00410000  0.29216667  0.43956000  1.0
  O2-  O121  1  0.00410000  0.29216667  0.63956000  1.0
  O2-  O122  1  0.00410000  0.29216667  0.83956000  1.0
  O2-  O123  1  0.91750000  0.72366667  0.14634000  1.0
  O2-  O124  1  0.91750000  0.72366667  0.34634000  1.0
  O2-  O125  1  0.91750000  0.72366667  0.54634000  1.0
  O2-  O126  1  0.91750000  0.72366667  0.74634000  1.0
  O2-  O127  1  0.91750000  0.72366667  0.94634000  1.0
  O2-  O128  1  0.26830000  0.58416667  0.18860000  1.0
  O2-  O129  1  0.26830000  0.58416667  0.38860000  1.0
  O2-  O130  1  0.26830000  0.58416667  0.58860000  1.0
  O2-  O131  1  0.26830000  0.58416667  0.78860000  1.0
  O2-  O132  1  0.26830000  0.58416667  0.98860000  1.0
  O2-  O133  1  0.05700000  0.93496667  0.01650000  1.0
  O2-  O134  1  0.05700000  0.93496667  0.21650000  1.0
  O2-  O135  1  0.05700000  0.93496667  0.41650000  1.0
  O2-  O136  1  0.05700000  0.93496667  0.61650000  1.0
  O2-  O137  1  0.05700000  0.93496667  0.81650000  1.0
  O2-  O138  1  0.76830000  0.22366667  0.11650000  1.0
  O2-  O139  1  0.76830000  0.22366667  0.31650000  1.0
  O2-  O140  1  0.76830000  0.22366667  0.51650000  1.0
  O2-  O141  1  0.76830000  0.22366667  0.71650000  1.0
  O2-  O142  1  0.76830000  0.22366667  0.91650000  1.0
  O2-  O143  1  0.41750000  0.43496667  0.08860000  1.0
  O2-  O144  1  0.41750000  0.43496667  0.28860000  1.0
  O2-  O145  1  0.41750000  0.43496667  0.48860000  1.0
  O2-  O146  1  0.41750000  0.43496667  0.68860000  1.0
  O2-  O147  1  0.41750000  0.43496667  0.88860000  1.0
  O2-  O148  1  0.55700000  0.08416667  0.04634000  1.0
  O2-  O149  1  0.55700000  0.08416667  0.24634000  1.0
  O2-  O150  1  0.55700000  0.08416667  0.44634000  1.0
  O2-  O151  1  0.55700000  0.08416667  0.64634000  1.0
  O2-  O152  1  0.55700000  0.08416667  0.84634000  1.0
  O2-  O153  1  0.08250000  0.60966667  0.05366000  1.0
  O2-  O154  1  0.08250000  0.60966667  0.25366000  1.0
  O2-  O155  1  0.08250000  0.60966667  0.45366000  1.0
  O2-  O156  1  0.08250000  0.60966667  0.65366000  1.0
  O2-  O157  1  0.08250000  0.60966667  0.85366000  1.0
  O2-  O158  1  0.73170000  0.74916667  0.01140000  1.0
  O2-  O159  1  0.73170000  0.74916667  0.21140000  1.0
  O2-  O160  1  0.73170000  0.74916667  0.41140000  1.0
  O2-  O161  1  0.73170000  0.74916667  0.61140000  1.0
  O2-  O162  1  0.73170000  0.74916667  0.81140000  1.0
  O2-  O163  1  0.94300000  0.39836667  0.18350000  1.0
  O2-  O164  1  0.94300000  0.39836667  0.38350000  1.0
  O2-  O165  1  0.94300000  0.39836667  0.58350000  1.0
  O2-  O166  1  0.94300000  0.39836667  0.78350000  1.0
  O2-  O167  1  0.94300000  0.39836667  0.98350000  1.0
  O2-  O168  1  0.23170000  0.10966667  0.08350000  1.0
  O2-  O169  1  0.23170000  0.10966667  0.28350000  1.0
  O2-  O170  1  0.23170000  0.10966667  0.48350000  1.0
  O2-  O171  1  0.23170000  0.10966667  0.68350000  1.0
  O2-  O172  1  0.23170000  0.10966667  0.88350000  1.0
  O2-  O173  1  0.58250000  0.89836667  0.11140000  1.0
  O2-  O174  1  0.58250000  0.89836667  0.31140000  1.0
  O2-  O175  1  0.58250000  0.89836667  0.51140000  1.0
  O2-  O176  1  0.58250000  0.89836667  0.71140000  1.0
  O2-  O177  1  0.58250000  0.89836667  0.91140000  1.0
  O2-  O178  1  0.44300000  0.24916667  0.15366000  1.0
  O2-  O179  1  0.44300000  0.24916667  0.35366000  1.0
  O2-  O180  1  0.44300000  0.24916667  0.55366000  1.0
  O2-  O181  1  0.44300000  0.24916667  0.75366000  1.0
  O2-  O182  1  0.44300000  0.24916667  0.95366000  1.0
