# generated using pymatgen
data_Li13Ti17Al3(PO4)30
_symmetry_space_group_name_H-M   'P 1'
_cell_length_a   8.50594445
_cell_length_b   8.50594445
_cell_length_c   42.52972223
_cell_angle_alpha   60.02999086
_cell_angle_beta   60.02999086
_cell_angle_gamma   60.02999086
_symmetry_Int_Tables_number   1
_chemical_formula_structural   Li13Ti17Al3(PO4)30
_chemical_formula_sum   'Li13 Ti17 Al3 P30 O120'
_cell_volume   2177.29754399
_cell_formula_units_Z   1
loop_
 _symmetry_equiv_pos_site_id
 _symmetry_equiv_pos_as_xyz
  1  'x, y, z'
loop_
 _atom_type_symbol
 _atom_type_oxidation_number
  Li+  1.0
  Ti4+  4.0
  Al3+  3.0
  P5+  5.0
  O2-  -2.0
loop_
 _atom_site_type_symbol
 _atom_site_label
 _atom_site_symmetry_multiplicity
 _atom_site_fract_x
 _atom_site_fract_y
 _atom_site_fract_z
 _atom_site_occupancy
  Li+  Li1  1  0.50000000  0.50000000  0.10000000  1.0
  Li+  Li1  1  0.50000000  0.50000000  0.30000000  1.0
  Li+  Li1  1  0.50000000  0.50000000  0.50000000  1.0
  Li+  Li1  1  0.50000000  0.50000000  0.70000000  1.0
  Li+  Li1  1  0.50000000  0.50000000  0.90000000  1.0
  Li+  Li1  1  0.00000000  0.00000000  0.00000000  1.0
  Li+  Li1  1  0.00000000  0.00000000  0.20000000  1.0
  Li+  Li1  1  0.00000000  0.00000000  0.40000000  1.0
  Li+  Li1  1  0.00000000  0.00000000  0.60000000  1.0
  Li+  Li1  1  0.00000000  0.00000000  0.80000000  1.0
  Li+  Li10  1  0.17400000  0.36400000  0.75880000  1.0
  Li+  Li11  1  0.86400000  0.67400000  0.65880000  1.0
  Li+  Li12  1  0.32600000  0.70600000  0.82720000  1.0
  Ti4+  Ti13  1  0.35846000  0.35846000  0.07169200  1.0
  Ti4+  Ti14  1  0.35846000  0.35846000  0.27169200  1.0
  Ti4+  Ti15  1  0.35846000  0.35846000  0.47169200  1.0
  Ti4+  Ti16  1  0.35846000  0.35846000  0.87169200  1.0
  Ti4+  Ti17  1  0.85846000  0.85846000  0.17169200  1.0
  Ti4+  Ti18  1  0.85846000  0.85846000  0.37169200  1.0
  Ti4+  Ti19  1  0.85846000  0.85846000  0.57169200  1.0
  Ti4+  Ti20  1  0.85846000  0.85846000  0.77169200  1.0
  Ti4+  Ti21  1  0.85846000  0.85846000  0.97169200  1.0
  Ti4+  Ti22  1  0.64154000  0.64154000  0.12830800  1.0
  Ti4+  Ti23  1  0.64154000  0.64154000  0.32830800  1.0
  Ti4+  Ti24  1  0.64154000  0.64154000  0.52830800  1.0
  Ti4+  Ti25  1  0.14154000  0.14154000  0.02830800  1.0
  Ti4+  Ti26  1  0.14154000  0.14154000  0.22830800  1.0
  Ti4+  Ti27  1  0.14154000  0.14154000  0.42830800  1.0
  Ti4+  Ti28  1  0.14154000  0.14154000  0.62830800  1.0
  Ti4+  Ti29  1  0.14154000  0.14154000  0.82830800  1.0
  Al3+  Al30  1  0.35846000  0.35846000  0.67169200  1.0
  Al3+  Al31  1  0.64154000  0.64154000  0.72830800  1.0
  Al3+  Al32  1  0.64154000  0.64154000  0.92830800  1.0
  P5+  P1  1  0.53870000  0.96130000  0.05000000  1.0
  P5+  P1  1  0.53870000  0.96130000  0.25000000  1.0
  P5+  P1  1  0.53870000  0.96130000  0.45000000  1.0
  P5+  P1  1  0.53870000  0.96130000  0.65000000  1.0
  P5+  P1  1  0.53870000  0.96130000  0.85000000  1.0
  P5+  P1  1  0.96130000  0.25000000  0.10774000  1.0
  P5+  P1  1  0.96130000  0.25000000  0.30774000  1.0
  P5+  P1  1  0.96130000  0.25000000  0.50774000  1.0
  P5+  P1  1  0.96130000  0.25000000  0.70774000  1.0
  P5+  P1  1  0.96130000  0.25000000  0.90774000  1.0
  P5+  P1  1  0.25000000  0.53870000  0.19226000  1.0
  P5+  P1  1  0.25000000  0.53870000  0.39226000  1.0
  P5+  P1  1  0.25000000  0.53870000  0.59226000  1.0
  P5+  P1  1  0.25000000  0.53870000  0.79226000  1.0
  P5+  P1  1  0.25000000  0.53870000  0.99226000  1.0
  P5+  P1  1  0.03870000  0.75000000  0.09226000  1.0
  P5+  P1  1  0.03870000  0.75000000  0.29226000  1.0
  P5+  P1  1  0.03870000  0.75000000  0.49226000  1.0
  P5+  P1  1  0.03870000  0.75000000  0.69226000  1.0
  P5+  P1  1  0.03870000  0.75000000  0.89226000  1.0
  P5+  P1  1  0.75000000  0.46130000  0.00774000  1.0
  P5+  P1  1  0.75000000  0.46130000  0.20774000  1.0
  P5+  P1  1  0.75000000  0.46130000  0.40774000  1.0
  P5+  P1  1  0.75000000  0.46130000  0.60774000  1.0
  P5+  P1  1  0.75000000  0.46130000  0.80774000  1.0
  P5+  P1  1  0.46130000  0.03870000  0.15000000  1.0
  P5+  P1  1  0.46130000  0.03870000  0.35000000  1.0
  P5+  P1  1  0.46130000  0.03870000  0.55000000  1.0
  P5+  P1  1  0.46130000  0.03870000  0.75000000  1.0
  P5+  P1  1  0.46130000  0.03870000  0.95000000  1.0
  O2-  O1  1  0.50410000  0.12550000  0.06044000  1.0
  O2-  O1  1  0.50410000  0.12550000  0.26044000  1.0
  O2-  O1  1  0.50410000  0.12550000  0.46044000  1.0
  O2-  O1  1  0.50410000  0.12550000  0.66044000  1.0
  O2-  O1  1  0.50410000  0.12550000  0.86044000  1.0
  O2-  O1  1  0.12550000  0.30220000  0.10082000  1.0
  O2-  O1  1  0.12550000  0.30220000  0.30082000  1.0
  O2-  O1  1  0.12550000  0.30220000  0.50082000  1.0
  O2-  O1  1  0.12550000  0.30220000  0.70082000  1.0
  O2-  O1  1  0.12550000  0.30220000  0.90082000  1.0
  O2-  O1  1  0.30220000  0.50410000  0.02510000  1.0
  O2-  O1  1  0.30220000  0.50410000  0.22510000  1.0
  O2-  O1  1  0.30220000  0.50410000  0.42510000  1.0
  O2-  O1  1  0.30220000  0.50410000  0.62510000  1.0
  O2-  O1  1  0.30220000  0.50410000  0.82510000  1.0
  O2-  O1  1  0.00410000  0.80220000  0.12510000  1.0
  O2-  O1  1  0.00410000  0.80220000  0.32510000  1.0
  O2-  O1  1  0.00410000  0.80220000  0.52510000  1.0
  O2-  O1  1  0.00410000  0.80220000  0.72510000  1.0
  O2-  O1  1  0.00410000  0.80220000  0.92510000  1.0
  O2-  O1  1  0.80220000  0.62550000  0.00082000  1.0
  O2-  O1  1  0.80220000  0.62550000  0.20082000  1.0
  O2-  O1  1  0.80220000  0.62550000  0.40082000  1.0
  O2-  O1  1  0.80220000  0.62550000  0.60082000  1.0
  O2-  O1  1  0.80220000  0.62550000  0.80082000  1.0
  O2-  O1  1  0.62550000  0.00410000  0.16044000  1.0
  O2-  O1  1  0.62550000  0.00410000  0.36044000  1.0
  O2-  O1  1  0.62550000  0.00410000  0.56044000  1.0
  O2-  O1  1  0.62550000  0.00410000  0.76044000  1.0
  O2-  O1  1  0.62550000  0.00410000  0.96044000  1.0
  O2-  O1  1  0.49590000  0.87450000  0.13956000  1.0
  O2-  O1  1  0.49590000  0.87450000  0.33956000  1.0
  O2-  O1  1  0.49590000  0.87450000  0.53956000  1.0
  O2-  O1  1  0.49590000  0.87450000  0.73956000  1.0
  O2-  O1  1  0.49590000  0.87450000  0.93956000  1.0
  O2-  O1  1  0.87450000  0.69780000  0.09918000  1.0
  O2-  O1  1  0.87450000  0.69780000  0.29918000  1.0
  O2-  O1  1  0.87450000  0.69780000  0.49918000  1.0
  O2-  O1  1  0.87450000  0.69780000  0.69918000  1.0
  O2-  O1  1  0.87450000  0.69780000  0.89918000  1.0
  O2-  O1  1  0.69780000  0.49590000  0.17490000  1.0
  O2-  O1  1  0.69780000  0.49590000  0.37490000  1.0
  O2-  O1  1  0.69780000  0.49590000  0.57490000  1.0
  O2-  O1  1  0.69780000  0.49590000  0.77490000  1.0
  O2-  O1  1  0.69780000  0.49590000  0.97490000  1.0
  O2-  O1  1  0.99590000  0.19780000  0.07490000  1.0
  O2-  O1  1  0.99590000  0.19780000  0.27490000  1.0
  O2-  O1  1  0.99590000  0.19780000  0.47490000  1.0
  O2-  O1  1  0.99590000  0.19780000  0.67490000  1.0
  O2-  O1  1  0.99590000  0.19780000  0.87490000  1.0
  O2-  O1  1  0.19780000  0.37450000  0.19918000  1.0
  O2-  O1  1  0.19780000  0.37450000  0.39918000  1.0
  O2-  O1  1  0.19780000  0.37450000  0.59918000  1.0
  O2-  O1  1  0.19780000  0.37450000  0.79918000  1.0
  O2-  O1  1  0.19780000  0.37450000  0.99918000  1.0
  O2-  O1  1  0.37450000  0.99590000  0.03956000  1.0
  O2-  O1  1  0.37450000  0.99590000  0.23956000  1.0
  O2-  O1  1  0.37450000  0.99590000  0.43956000  1.0
  O2-  O1  1  0.37450000  0.99590000  0.63956000  1.0
  O2-  O1  1  0.37450000  0.99590000  0.83956000  1.0
  O2-  O2  1  0.94300000  0.08250000  0.14634000  1.0
  O2-  O2  1  0.94300000  0.08250000  0.34634000  1.0
  O2-  O2  1  0.94300000  0.08250000  0.54634000  1.0
  O2-  O2  1  0.94300000  0.08250000  0.74634000  1.0
  O2-  O2  1  0.94300000  0.08250000  0.94634000  1.0
  O2-  O2  1  0.08250000  0.73170000  0.18860000  1.0
  O2-  O2  1  0.08250000  0.73170000  0.38860000  1.0
  O2-  O2  1  0.08250000  0.73170000  0.58860000  1.0
  O2-  O2  1  0.08250000  0.73170000  0.78860000  1.0
  O2-  O2  1  0.08250000  0.73170000  0.98860000  1.0
  O2-  O2  1  0.73170000  0.94300000  0.01650000  1.0
  O2-  O2  1  0.73170000  0.94300000  0.21650000  1.0
  O2-  O2  1  0.73170000  0.94300000  0.41650000  1.0
  O2-  O2  1  0.73170000  0.94300000  0.61650000  1.0
  O2-  O2  1  0.73170000  0.94300000  0.81650000  1.0
  O2-  O2  1  0.44300000  0.23170000  0.11650000  1.0
  O2-  O2  1  0.44300000  0.23170000  0.31650000  1.0
  O2-  O2  1  0.44300000  0.23170000  0.51650000  1.0
  O2-  O2  1  0.44300000  0.23170000  0.71650000  1.0
  O2-  O2  1  0.44300000  0.23170000  0.91650000  1.0
  O2-  O2  1  0.23170000  0.58250000  0.08860000  1.0
  O2-  O2  1  0.23170000  0.58250000  0.28860000  1.0
  O2-  O2  1  0.23170000  0.58250000  0.48860000  1.0
  O2-  O2  1  0.23170000  0.58250000  0.68860000  1.0
  O2-  O2  1  0.23170000  0.58250000  0.88860000  1.0
  O2-  O2  1  0.58250000  0.44300000  0.04634000  1.0
  O2-  O2  1  0.58250000  0.44300000  0.24634000  1.0
  O2-  O2  1  0.58250000  0.44300000  0.44634000  1.0
  O2-  O2  1  0.58250000  0.44300000  0.64634000  1.0
  O2-  O2  1  0.58250000  0.44300000  0.84634000  1.0
  O2-  O2  1  0.05700000  0.91750000  0.05366000  1.0
  O2-  O2  1  0.05700000  0.91750000  0.25366000  1.0
  O2-  O2  1  0.05700000  0.91750000  0.45366000  1.0
  O2-  O2  1  0.05700000  0.91750000  0.65366000  1.0
  O2-  O2  1  0.05700000  0.91750000  0.85366000  1.0
  O2-  O2  1  0.91750000  0.26830000  0.01140000  1.0
  O2-  O2  1  0.91750000  0.26830000  0.21140000  1.0
  O2-  O2  1  0.91750000  0.26830000  0.41140000  1.0
  O2-  O2  1  0.91750000  0.26830000  0.61140000  1.0
  O2-  O2  1  0.91750000  0.26830000  0.81140000  1.0
  O2-  O2  1  0.26830000  0.05700000  0.18350000  1.0
  O2-  O2  1  0.26830000  0.05700000  0.38350000  1.0
  O2-  O2  1  0.26830000  0.05700000  0.58350000  1.0
  O2-  O2  1  0.26830000  0.05700000  0.78350000  1.0
  O2-  O2  1  0.26830000  0.05700000  0.98350000  1.0
  O2-  O2  1  0.55700000  0.76830000  0.08350000  1.0
  O2-  O2  1  0.55700000  0.76830000  0.28350000  1.0
  O2-  O2  1  0.55700000  0.76830000  0.48350000  1.0
  O2-  O2  1  0.55700000  0.76830000  0.68350000  1.0
  O2-  O2  1  0.55700000  0.76830000  0.88350000  1.0
  O2-  O2  1  0.76830000  0.41750000  0.11140000  1.0
  O2-  O2  1  0.76830000  0.41750000  0.31140000  1.0
  O2-  O2  1  0.76830000  0.41750000  0.51140000  1.0
  O2-  O2  1  0.76830000  0.41750000  0.71140000  1.0
  O2-  O2  1  0.76830000  0.41750000  0.91140000  1.0
  O2-  O2  1  0.41750000  0.55700000  0.15366000  1.0
  O2-  O2  1  0.41750000  0.55700000  0.35366000  1.0
  O2-  O2  1  0.41750000  0.55700000  0.55366000  1.0
  O2-  O2  1  0.41750000  0.55700000  0.75366000  1.0
  O2-  O2  1  0.41750000  0.55700000  0.95366000  1.0
