# generated using pymatgen
data_Li22Al2Sn3S20
_symmetry_space_group_name_H-M   'P 1'
_cell_length_a   31.42305000
_cell_length_b   8.01709000
_cell_length_c   8.01709000
_cell_angle_alpha   120.00000000
_cell_angle_beta   90.00000000
_cell_angle_gamma   90.00000000
_symmetry_Int_Tables_number   1
_chemical_formula_structural   Li22Al2Sn3S20
_chemical_formula_sum   'Li44 Al4 Sn6 S40'
_cell_volume   1749.09132657
_cell_formula_units_Z   2
loop_
 _symmetry_equiv_pos_site_id
 _symmetry_equiv_pos_as_xyz
  1  'x, y, z'
loop_
 _atom_type_symbol
 _atom_type_oxidation_number
  Li+  1.0
  Al3+  3.0
  Sn4+  4.0
  S2-  -2.0
loop_
 _atom_site_type_symbol
 _atom_site_label
 _atom_site_symmetry_multiplicity
 _atom_site_fract_x
 _atom_site_fract_y
 _atom_site_fract_z
 _atom_site_occupancy
  Li+  Li0  1  0.06184000  0.83554000  0.67120000  1.0
  Li+  Li1  1  0.46184000  0.32880000  0.16434000  1.0
  Li+  Li2  1  0.66184000  0.32880000  0.16434000  1.0
  Li+  Li3  1  0.26184000  0.83554000  0.16434000  1.0
  Li+  Li4  1  0.73816000  0.16446000  0.32880000  1.0
  Li+  Li5  1  0.93816000  0.16446000  0.32880000  1.0
  Li+  Li6  1  0.93816000  0.67120000  0.83566000  1.0
  Li+  Li7  1  0.53816000  0.16434000  0.83554000  1.0
  Li+  Li8  1  0.93816000  0.16434000  0.83554000  1.0
  Li+  Li9  1  0.33816000  0.16434000  0.32880000  1.0
  Li+  Li10  1  0.53816000  0.16434000  0.32880000  1.0
  Li+  Li11  1  0.93816000  0.16434000  0.32880000  1.0
  Li+  Li12  1  0.50498000  0.03610000  0.51800000  1.0
  Li+  Li13  1  0.70498000  0.03610000  0.51800000  1.0
  Li+  Li14  1  0.90498000  0.03610000  0.51800000  1.0
  Li+  Li15  1  0.10498000  0.48190000  0.96390000  1.0
  Li+  Li16  1  0.10498000  0.03610000  0.51810000  1.0
  Li+  Li17  1  0.09502000  0.96390000  0.48200000  1.0
  Li+  Li18  1  0.49502000  0.96390000  0.48200000  1.0
  Li+  Li19  1  0.29502000  0.51800000  0.48190000  1.0
  Li+  Li20  1  0.49502000  0.51810000  0.03610000  1.0
  Li+  Li21  1  0.89502000  0.51810000  0.03610000  1.0
  Li+  Li22  1  0.69502000  0.96390000  0.48190000  1.0
  Li+  Li23  1  0.49502000  0.51810000  0.48200000  1.0
  Li+  Li24  1  0.09502000  0.51800000  0.03610000  1.0
  Li+  Li25  1  0.29502000  0.51800000  0.03610000  1.0
  Li+  Li26  1  0.02856000  0.84349000  0.68700000  1.0
  Li+  Li27  1  0.62856000  0.84349000  0.68700000  1.0
  Li+  Li28  1  0.82856000  0.84349000  0.68700000  1.0
  Li+  Li29  1  0.22856000  0.84351000  0.15651000  1.0
  Li+  Li30  1  0.42856000  0.84351000  0.15651000  1.0
  Li+  Li31  1  0.02856000  0.84349000  0.15649000  1.0
  Li+  Li32  1  0.62856000  0.84349000  0.15649000  1.0
  Li+  Li33  1  0.42856000  0.84351000  0.68700000  1.0
  Li+  Li34  1  0.02856000  0.31300000  0.15651000  1.0
  Li+  Li35  1  0.22856000  0.31300000  0.15651000  1.0
  Li+  Li36  1  0.62856000  0.31300000  0.15651000  1.0
  Li+  Li37  1  0.37144000  0.15651000  0.31300000  1.0
  Li+  Li38  1  0.57144000  0.68700000  0.84351000  1.0
  Li+  Li39  1  0.17144000  0.15649000  0.84349000  1.0
  Li+  Li40  1  0.37144000  0.15649000  0.84349000  1.0
  Li+  Li41  1  0.57144000  0.15649000  0.84349000  1.0
  Li+  Li42  1  0.77144000  0.15649000  0.31300000  1.0
  Li+  Li43  1  0.17144000  0.68700000  0.84349000  1.0
  Al3+  Al44  1  0.42724400  0.33333333  0.66666667  1.0
  Al3+  Al45  1  0.62724400  0.33333333  0.66666667  1.0
  Al3+  Al46  1  0.17275600  0.66666667  0.33333333  1.0
  Al3+  Al47  1  0.77275600  0.66666667  0.33333333  1.0
  Sn4+  Sn48  1  0.02724400  0.33333333  0.66666667  1.0
  Sn4+  Sn49  1  0.22724400  0.33333333  0.66666667  1.0
  Sn4+  Sn50  1  0.82724400  0.33333333  0.66666667  1.0
  Sn4+  Sn51  1  0.37275600  0.66666667  0.33333333  1.0
  Sn4+  Sn52  1  0.57275600  0.66666667  0.33333333  1.0
  Sn4+  Sn53  1  0.97275600  0.66666667  0.33333333  1.0
  S2-  S1  1  0.05260800  0.17657000  0.82342000  1.0
  S2-  S1  1  0.25260800  0.17657000  0.82342000  1.0
  S2-  S1  1  0.45260800  0.17657000  0.82342000  1.0
  S2-  S1  1  0.65260800  0.17657000  0.82342000  1.0
  S2-  S1  1  0.85260800  0.17657000  0.82342000  1.0
  S2-  S1  1  0.05260800  0.17658000  0.35315000  1.0
  S2-  S1  1  0.25260800  0.17658000  0.35315000  1.0
  S2-  S1  1  0.45260800  0.17658000  0.35315000  1.0
  S2-  S1  1  0.65260800  0.17658000  0.35315000  1.0
  S2-  S1  1  0.85260800  0.17658000  0.35315000  1.0
  S2-  S1  1  0.05260800  0.64685000  0.82343000  1.0
  S2-  S1  1  0.25260800  0.64685000  0.82343000  1.0
  S2-  S1  1  0.45260800  0.64685000  0.82343000  1.0
  S2-  S1  1  0.65260800  0.64685000  0.82343000  1.0
  S2-  S1  1  0.85260800  0.64685000  0.82343000  1.0
  S2-  S1  1  0.14739200  0.82343000  0.17658000  1.0
  S2-  S1  1  0.34739200  0.82343000  0.17658000  1.0
  S2-  S1  1  0.54739200  0.82343000  0.17658000  1.0
  S2-  S1  1  0.74739200  0.82343000  0.17658000  1.0
  S2-  S1  1  0.94739200  0.82343000  0.17658000  1.0
  S2-  S1  1  0.14739200  0.82342000  0.64685000  1.0
  S2-  S1  1  0.34739200  0.82342000  0.64685000  1.0
  S2-  S1  1  0.54739200  0.82342000  0.64685000  1.0
  S2-  S1  1  0.74739200  0.82342000  0.64685000  1.0
  S2-  S1  1  0.94739200  0.82342000  0.64685000  1.0
  S2-  S1  1  0.14739200  0.35315000  0.17657000  1.0
  S2-  S1  1  0.34739200  0.35315000  0.17657000  1.0
  S2-  S1  1  0.54739200  0.35315000  0.17657000  1.0
  S2-  S1  1  0.74739200  0.35315000  0.17657000  1.0
  S2-  S1  1  0.94739200  0.35315000  0.17657000  1.0
  S2-  S2  1  0.15292200  0.33333333  0.66666667  1.0
  S2-  S2  1  0.35292200  0.33333333  0.66666667  1.0
  S2-  S2  1  0.55292200  0.33333333  0.66666667  1.0
  S2-  S2  1  0.75292200  0.33333333  0.66666667  1.0
  S2-  S2  1  0.95292200  0.33333333  0.66666667  1.0
  S2-  S2  1  0.04707800  0.66666667  0.33333333  1.0
  S2-  S2  1  0.24707800  0.66666667  0.33333333  1.0
  S2-  S2  1  0.44707800  0.66666667  0.33333333  1.0
  S2-  S2  1  0.64707800  0.66666667  0.33333333  1.0
  S2-  S2  1  0.84707800  0.66666667  0.33333333  1.0
