# generated using pymatgen
data_Li2MgBr4
_symmetry_space_group_name_H-M   'P 1'
_cell_length_a   23.19300000
_cell_length_b   13.50762269
_cell_length_c   13.50762269
_cell_angle_alpha   109.67089494
_cell_angle_beta   90.00000000
_cell_angle_gamma   90.00000000
_symmetry_Int_Tables_number   1
_chemical_formula_structural   Li2MgBr4
_chemical_formula_sum   'Li48 Mg24 Br96'
_cell_volume   3984.74408328
_cell_formula_units_Z   24
loop_
 _symmetry_equiv_pos_site_id
 _symmetry_equiv_pos_as_xyz
  1  'x, y, z'
loop_
 _atom_type_symbol
 _atom_type_oxidation_number
  Li+  1.0
  Mg2+  2.0
  Br-  -1.0
loop_
 _atom_site_type_symbol
 _atom_site_label
 _atom_site_symmetry_multiplicity
 _atom_site_fract_x
 _atom_site_fract_y
 _atom_site_fract_z
 _atom_site_occupancy
  Li+  Li0  1  0.08333333  0.75000000  0.25000000  1.0
  Li+  Li1  1  0.58333333  0.75000000  0.25000000  1.0
  Li+  Li2  1  0.08333333  0.25000000  0.25000000  1.0
  Li+  Li3  1  0.58288085  0.24619468  0.24827937  1.0
  Li+  Li4  1  0.08333333  0.75000000  0.75000000  1.0
  Li+  Li5  1  0.58436548  0.74344702  0.75299670  1.0
  Li+  Li6  1  0.08333333  0.25000000  0.75000000  1.0
  Li+  Li7  1  0.58333333  0.25000000  0.75000000  1.0
  Li+  Li8  1  0.25000000  0.75000000  0.25000000  1.0
  Li+  Li9  1  0.75000000  0.75000000  0.25000000  1.0
  Li+  Li10  1  0.25000000  0.25000000  0.25000000  1.0
  Li+  Li11  1  0.75000000  0.25000000  0.25000000  1.0
  Li+  Li12  1  0.25140031  0.74905768  0.74928319  1.0
  Li+  Li13  1  0.75000000  0.75000000  0.75000000  1.0
  Li+  Li14  1  0.25000000  0.25000000  0.75000000  1.0
  Li+  Li15  1  0.75000000  0.25000000  0.75000000  1.0
  Li+  Li16  1  0.41763988  0.74971973  0.24863812  1.0
  Li+  Li17  1  0.91916069  0.74986347  0.25076941  1.0
  Li+  Li18  1  0.41666666  0.25000000  0.25000000  1.0
  Li+  Li19  1  0.91666667  0.25000000  0.25000000  1.0
  Li+  Li20  1  0.41550527  0.74825511  0.75041569  1.0
  Li+  Li21  1  0.91666667  0.75000000  0.75000000  1.0
  Li+  Li22  1  0.41666666  0.25000000  0.75000000  1.0
  Li+  Li23  1  0.91666667  0.25000000  0.75000000  1.0
  Li+  Li24  1  0.08333333  0.50000000  0.50000000  1.0
  Li+  Li25  1  0.58144453  0.49706153  0.49424440  1.0
  Li+  Li26  1  0.08333333  0.00000000  0.50000000  1.0
  Li+  Li27  1  0.58333333  0.00000000  0.50000000  1.0
  Li+  Li28  1  0.08333333  0.50000000  0.00000000  1.0
  Li+  Li29  1  0.58333333  0.50000000  0.00000000  1.0
  Li+  Li30  1  0.08333333  0.00000000  0.00000000  1.0
  Li+  Li31  1  0.58333333  0.00000000  0.00000000  1.0
  Li+  Li32  1  0.25390198  0.49679752  0.50059654  1.0
  Li+  Li33  1  0.75000000  0.50000000  0.50000000  1.0
  Li+  Li34  1  0.25000000  0.00000000  0.50000000  1.0
  Li+  Li35  1  0.75000000  0.00000000  0.50000000  1.0
  Li+  Li36  1  0.25121289  0.49813690  0.00308476  1.0
  Li+  Li37  1  0.75000000  0.50000000  0.00000000  1.0
  Li+  Li38  1  0.25000000  0.00000000  0.00000000  1.0
  Li+  Li39  1  0.75000000  0.00000000  0.00000000  1.0
  Li+  Li40  1  0.41666666  0.50000000  0.50000000  1.0
  Li+  Li41  1  0.91666667  0.50000000  0.50000000  1.0
  Li+  Li42  1  0.41666666  0.00000000  0.50000000  1.0
  Li+  Li43  1  0.91666667  0.00000000  0.50000000  1.0
  Li+  Li44  1  0.41666666  0.50000000  0.00000000  1.0
  Li+  Li45  1  0.91666667  0.50000000  0.00000000  1.0
  Li+  Li46  1  0.41666666  0.00000000  0.00000000  1.0
  Li+  Li47  1  0.91666667  0.00000000  0.00000000  1.0
  Mg2+  Mg48  1  0.00000000  0.00000000  0.75000000  1.0
  Mg2+  Mg49  1  0.50000000  0.00000000  0.75000000  1.0
  Mg2+  Mg50  1  0.00000000  0.50000000  0.75000000  1.0
  Mg2+  Mg51  1  0.50000000  0.50000000  0.75000000  1.0
  Mg2+  Mg52  1  0.00035618  0.00353218  0.24983575  1.0
  Mg2+  Mg53  1  0.49918432  0.00155338  0.25375068  1.0
  Mg2+  Mg54  1  0.00040808  0.49947750  0.25143389  1.0
  Mg2+  Mg55  1  0.50000000  0.50000000  0.25000000  1.0
  Mg2+  Mg56  1  0.16666667  0.00000000  0.75000000  1.0
  Mg2+  Mg57  1  0.66817589  0.99918977  0.75037222  1.0
  Mg2+  Mg58  1  0.16666667  0.50000000  0.75000000  1.0
  Mg2+  Mg59  1  0.66666667  0.50000000  0.75000000  1.0
  Mg2+  Mg60  1  0.16114217  0.99962681  0.25424242  1.0
  Mg2+  Mg61  1  0.66666667  0.00000000  0.25000000  1.0
  Mg2+  Mg62  1  0.16666667  0.50000000  0.25000000  1.0
  Mg2+  Mg63  1  0.66547150  0.50280539  0.24691544  1.0
  Mg2+  Mg64  1  0.33333333  0.00000000  0.75000000  1.0
  Mg2+  Mg65  1  0.83333333  0.00000000  0.75000000  1.0
  Mg2+  Mg66  1  0.33333333  0.50000000  0.75000000  1.0
  Mg2+  Mg67  1  0.83333333  0.50000000  0.75000000  1.0
  Mg2+  Mg68  1  0.33684467  0.00096726  0.24492053  1.0
  Mg2+  Mg69  1  0.83333333  0.00000000  0.25000000  1.0
  Mg2+  Mg70  1  0.33333333  0.50000000  0.25000000  1.0
  Mg2+  Mg71  1  0.83333333  0.50000000  0.25000000  1.0
  Br-  Br72  1  0.08333333  0.61960000  0.36960000  1.0
  Br-  Br73  1  0.58333333  0.61960000  0.36960000  1.0
  Br-  Br74  1  0.08333333  0.11960000  0.36960000  1.0
  Br-  Br75  1  0.58333333  0.11960000  0.36960000  1.0
  Br-  Br76  1  0.08333333  0.61960000  0.86960000  1.0
  Br-  Br77  1  0.58333333  0.61960000  0.86960000  1.0
  Br-  Br78  1  0.08679883  0.11782015  0.87168536  1.0
  Br-  Br79  1  0.58333333  0.11960000  0.86960000  1.0
  Br-  Br80  1  0.25000000  0.61960000  0.36960000  1.0
  Br-  Br81  1  0.75000000  0.61960000  0.36960000  1.0
  Br-  Br82  1  0.25000000  0.11960000  0.36960000  1.0
  Br-  Br83  1  0.74820919  0.11997237  0.36992472  1.0
  Br-  Br84  1  0.24760866  0.62098673  0.87003659  1.0
  Br-  Br85  1  0.75000000  0.61960000  0.86960000  1.0
  Br-  Br86  1  0.25510346  0.11395986  0.87170313  1.0
  Br-  Br87  1  0.75405204  0.11635166  0.86796551  1.0
  Br-  Br88  1  0.41666666  0.61960000  0.36960000  1.0
  Br-  Br89  1  0.91666667  0.61960000  0.36960000  1.0
  Br-  Br90  1  0.42026872  0.12051620  0.36936752  1.0
  Br-  Br91  1  0.91666667  0.11960000  0.36960000  1.0
  Br-  Br92  1  0.41666667  0.61960000  0.86960000  1.0
  Br-  Br93  1  0.91666667  0.61960000  0.86960000  1.0
  Br-  Br94  1  0.41666667  0.11960000  0.86960000  1.0
  Br-  Br95  1  0.91666667  0.11960000  0.86960000  1.0
  Br-  Br96  1  0.08197252  0.87784298  0.63104063  1.0
  Br-  Br97  1  0.58333333  0.88040000  0.63040000  1.0
  Br-  Br98  1  0.08572938  0.37797185  0.63323480  1.0
  Br-  Br99  1  0.58333333  0.38040000  0.63040000  1.0
  Br-  Br100  1  0.08333333  0.88040000  0.13040000  1.0
  Br-  Br101  1  0.58333333  0.88040000  0.13040000  1.0
  Br-  Br102  1  0.08541795  0.37770816  0.13278727  1.0
  Br-  Br103  1  0.58333333  0.38040000  0.13040000  1.0
  Br-  Br104  1  0.25000000  0.88040000  0.63040000  1.0
  Br-  Br105  1  0.74934307  0.87639090  0.62975840  1.0
  Br-  Br106  1  0.25000000  0.38040000  0.63040000  1.0
  Br-  Br107  1  0.75000000  0.38040000  0.63040000  1.0
  Br-  Br108  1  0.25000000  0.88040000  0.13040000  1.0
  Br-  Br109  1  0.75000000  0.88040000  0.13040000  1.0
  Br-  Br110  1  0.25000000  0.38040000  0.13040000  1.0
  Br-  Br111  1  0.74834040  0.38607911  0.12952042  1.0
  Br-  Br112  1  0.41666666  0.88040000  0.63040000  1.0
  Br-  Br113  1  0.91666667  0.88040000  0.63040000  1.0
  Br-  Br114  1  0.41666666  0.38040000  0.63040000  1.0
  Br-  Br115  1  0.91666667  0.38040000  0.63040000  1.0
  Br-  Br116  1  0.41666666  0.88040000  0.13040000  1.0
  Br-  Br117  1  0.91618251  0.88087901  0.13078633  1.0
  Br-  Br118  1  0.41666666  0.38040000  0.13040000  1.0
  Br-  Br119  1  0.92029234  0.37539015  0.13136272  1.0
  Br-  Br120  1  0.16784986  0.62039407  0.63138286  1.0
  Br-  Br121  1  0.66666667  0.62090000  0.62910000  1.0
  Br-  Br122  1  0.16569345  0.11453148  0.63270675  1.0
  Br-  Br123  1  0.66554474  0.12408441  0.62926778  1.0
  Br-  Br124  1  0.16666667  0.62090000  0.12910000  1.0
  Br-  Br125  1  0.66666667  0.62090000  0.12910000  1.0
  Br-  Br126  1  0.16666667  0.12090000  0.12910000  1.0
  Br-  Br127  1  0.66666667  0.12090000  0.12910000  1.0
  Br-  Br128  1  0.33333333  0.62090000  0.62910000  1.0
  Br-  Br129  1  0.83333333  0.62090000  0.62910000  1.0
  Br-  Br130  1  0.33333333  0.12090000  0.62910000  1.0
  Br-  Br131  1  0.83333333  0.12090000  0.62910000  1.0
  Br-  Br132  1  0.33333333  0.62090000  0.12910000  1.0
  Br-  Br133  1  0.83333333  0.62090000  0.12910000  1.0
  Br-  Br134  1  0.33333333  0.12090000  0.12910000  1.0
  Br-  Br135  1  0.83404383  0.11486039  0.12731141  1.0
  Br-  Br136  1  0.00000000  0.62090000  0.62910000  1.0
  Br-  Br137  1  0.50000000  0.62090000  0.62910000  1.0
  Br-  Br138  1  0.00000000  0.12090000  0.62910000  1.0
  Br-  Br139  1  0.50000000  0.12090000  0.62910000  1.0
  Br-  Br140  1  0.00000000  0.62090000  0.12910000  1.0
  Br-  Br141  1  0.50000000  0.62090000  0.12910000  1.0
  Br-  Br142  1  0.00308199  0.12178278  0.12545446  1.0
  Br-  Br143  1  0.50000000  0.12090000  0.12910000  1.0
  Br-  Br144  1  0.16624765  0.87509220  0.36892734  1.0
  Br-  Br145  1  0.66666667  0.87910000  0.37090000  1.0
  Br-  Br146  1  0.16666667  0.37910000  0.37090000  1.0
  Br-  Br147  1  0.66682134  0.38267609  0.36919683  1.0
  Br-  Br148  1  0.16666667  0.87910000  0.87090000  1.0
  Br-  Br149  1  0.66666667  0.87910000  0.87090000  1.0
  Br-  Br150  1  0.16439685  0.38303319  0.87249191  1.0
  Br-  Br151  1  0.66666667  0.37910000  0.87090000  1.0
  Br-  Br152  1  0.33333333  0.87910000  0.37090000  1.0
  Br-  Br153  1  0.83333333  0.87910000  0.37090000  1.0
  Br-  Br154  1  0.33333333  0.37910000  0.37090000  1.0
  Br-  Br155  1  0.83333333  0.37910000  0.37090000  1.0
  Br-  Br156  1  0.33333333  0.87910000  0.87090000  1.0
  Br-  Br157  1  0.83333333  0.87910000  0.87090000  1.0
  Br-  Br158  1  0.33333333  0.37910000  0.87090000  1.0
  Br-  Br159  1  0.82759981  0.38320443  0.87289123  1.0
  Br-  Br160  1  0.00000000  0.87910000  0.37090000  1.0
  Br-  Br161  1  0.50212270  0.87722546  0.36749852  1.0
  Br-  Br162  1  0.00000000  0.37910000  0.37090000  1.0
  Br-  Br163  1  0.50000000  0.37910000  0.37090000  1.0
  Br-  Br164  1  0.99880852  0.87625180  0.87311123  1.0
  Br-  Br165  1  0.50210307  0.88070419  0.87194366  1.0
  Br-  Br166  1  0.99767450  0.37926043  0.86729453  1.0
  Br-  Br167  1  0.50000000  0.37910000  0.87090000  1.0
