# generated using pymatgen
data_Li2MgBr4
_symmetry_space_group_name_H-M   'P 1'
_cell_length_a   13.54428188
_cell_length_b   23.25594495
_cell_length_c   13.54428188
_cell_angle_alpha   90.00000000
_cell_angle_beta   70.32910506
_cell_angle_gamma   90.00000000
_symmetry_Int_Tables_number   1
_chemical_formula_structural   Li2MgBr4
_chemical_formula_sum   'Li48 Mg24 Br96'
_cell_volume   4017.27555912
_cell_formula_units_Z   24
loop_
 _symmetry_equiv_pos_site_id
 _symmetry_equiv_pos_as_xyz
  1  'x, y, z'
loop_
 _atom_type_symbol
 _atom_type_oxidation_number
  Li+  1.0
  Mg2+  2.0
  Br-  -1.0
loop_
 _atom_site_type_symbol
 _atom_site_label
 _atom_site_symmetry_multiplicity
 _atom_site_fract_x
 _atom_site_fract_y
 _atom_site_fract_z
 _atom_site_occupancy
  Li+  Li0  1  0.50000000  0.58333333  0.25000000  1.0
  Li+  Li1  1  0.50000000  0.08333333  0.25000000  1.0
  Li+  Li2  1  0.50000000  0.58333333  0.75000000  1.0
  Li+  Li3  1  0.50000000  0.08333333  0.75000000  1.0
  Li+  Li4  1  0.00000000  0.58333333  0.25000000  1.0
  Li+  Li5  1  0.00000000  0.08333333  0.25000000  1.0
  Li+  Li6  1  0.00000000  0.58333333  0.75000000  1.0
  Li+  Li7  1  0.00000000  0.08333333  0.75000000  1.0
  Li+  Li8  1  0.50000000  0.41666667  0.25000000  1.0
  Li+  Li9  1  0.50000000  0.91666667  0.25000000  1.0
  Li+  Li10  1  0.50000000  0.41666667  0.75000000  1.0
  Li+  Li11  1  0.50000000  0.91666667  0.75000000  1.0
  Li+  Li12  1  0.00000000  0.41666667  0.25000000  1.0
  Li+  Li13  1  0.00000000  0.91666667  0.25000000  1.0
  Li+  Li14  1  0.00000000  0.41666667  0.75000000  1.0
  Li+  Li15  1  0.00000000  0.91666667  0.75000000  1.0
  Li+  Li16  1  0.50000000  0.25000000  0.25000000  1.0
  Li+  Li17  1  0.50000000  0.75000000  0.25000000  1.0
  Li+  Li18  1  0.50000000  0.25000000  0.75000000  1.0
  Li+  Li19  1  0.50000000  0.75000000  0.75000000  1.0
  Li+  Li20  1  0.00000000  0.25000000  0.25000000  1.0
  Li+  Li21  1  0.00000000  0.75000000  0.25000000  1.0
  Li+  Li22  1  0.00000000  0.25000000  0.75000000  1.0
  Li+  Li23  1  0.00000000  0.75000000  0.75000000  1.0
  Li+  Li24  1  0.75000000  0.58333333  0.50000000  1.0
  Li+  Li25  1  0.75000000  0.08333333  0.50000000  1.0
  Li+  Li26  1  0.75000000  0.58333333  0.00000000  1.0
  Li+  Li27  1  0.75000000  0.08333333  0.00000000  1.0
  Li+  Li28  1  0.25000000  0.58333333  0.50000000  1.0
  Li+  Li29  1  0.25000000  0.08333333  0.50000000  1.0
  Li+  Li30  1  0.25000000  0.58333333  0.00000000  1.0
  Li+  Li31  1  0.25000000  0.08333333  0.00000000  1.0
  Li+  Li32  1  0.75000000  0.41666667  0.50000000  1.0
  Li+  Li33  1  0.75000000  0.91666667  0.50000000  1.0
  Li+  Li34  1  0.75000000  0.41666667  0.00000000  1.0
  Li+  Li35  1  0.75000000  0.91666667  0.00000000  1.0
  Li+  Li36  1  0.25000000  0.41666667  0.50000000  1.0
  Li+  Li37  1  0.25000000  0.91666667  0.50000000  1.0
  Li+  Li38  1  0.25000000  0.41666667  0.00000000  1.0
  Li+  Li39  1  0.25000000  0.91666667  0.00000000  1.0
  Li+  Li40  1  0.75000000  0.25000000  0.50000000  1.0
  Li+  Li41  1  0.75000000  0.75000000  0.50000000  1.0
  Li+  Li42  1  0.75000000  0.25000000  0.00000000  1.0
  Li+  Li43  1  0.75000000  0.75000000  0.00000000  1.0
  Li+  Li44  1  0.25000000  0.25000000  0.50000000  1.0
  Li+  Li45  1  0.25000000  0.75000000  0.50000000  1.0
  Li+  Li46  1  0.25000000  0.25000000  0.00000000  1.0
  Li+  Li47  1  0.25000000  0.75000000  0.00000000  1.0
  Mg2+  Mg48  1  0.00000000  0.66666667  0.00000000  1.0
  Mg2+  Mg49  1  0.00000000  0.16666667  0.00000000  1.0
  Mg2+  Mg50  1  0.00000000  0.66666667  0.50000000  1.0
  Mg2+  Mg51  1  0.00000000  0.16666667  0.50000000  1.0
  Mg2+  Mg52  1  0.50000000  0.66666667  0.00000000  1.0
  Mg2+  Mg53  1  0.50000000  0.16666667  0.00000000  1.0
  Mg2+  Mg54  1  0.50000000  0.66666667  0.50000000  1.0
  Mg2+  Mg55  1  0.50000000  0.16666667  0.50000000  1.0
  Mg2+  Mg56  1  0.00000000  0.50000000  0.00000000  1.0
  Mg2+  Mg57  1  0.00000000  0.00000000  0.00000000  1.0
  Mg2+  Mg58  1  0.00000000  0.50000000  0.50000000  1.0
  Mg2+  Mg59  1  0.00000000  0.00000000  0.50000000  1.0
  Mg2+  Mg60  1  0.50000000  0.50000000  0.00000000  1.0
  Mg2+  Mg61  1  0.50000000  0.00000000  0.00000000  1.0
  Mg2+  Mg62  1  0.50000000  0.50000000  0.50000000  1.0
  Mg2+  Mg63  1  0.50000000  0.00000000  0.50000000  1.0
  Mg2+  Mg64  1  0.00000000  0.33333333  0.00000000  1.0
  Mg2+  Mg65  1  0.00000000  0.83333333  0.00000000  1.0
  Mg2+  Mg66  1  0.00000000  0.33333333  0.50000000  1.0
  Mg2+  Mg67  1  0.00000000  0.83333333  0.50000000  1.0
  Mg2+  Mg68  1  0.50000000  0.33333333  0.00000000  1.0
  Mg2+  Mg69  1  0.50000000  0.83333333  0.00000000  1.0
  Mg2+  Mg70  1  0.50000000  0.33333333  0.50000000  1.0
  Mg2+  Mg71  1  0.50000000  0.83333333  0.50000000  1.0
  Br-  Br72  1  0.61960000  0.58333333  0.38040000  1.0
  Br-  Br73  1  0.61960000  0.08333333  0.38040000  1.0
  Br-  Br74  1  0.61960000  0.58333333  0.88040000  1.0
  Br-  Br75  1  0.61960000  0.08333333  0.88040000  1.0
  Br-  Br76  1  0.11960000  0.58333333  0.38040000  1.0
  Br-  Br77  1  0.11960000  0.08333333  0.38040000  1.0
  Br-  Br78  1  0.11960000  0.58333333  0.88040000  1.0
  Br-  Br79  1  0.11960000  0.08333333  0.88040000  1.0
  Br-  Br80  1  0.61960000  0.41666667  0.38040000  1.0
  Br-  Br81  1  0.61960000  0.91666667  0.38040000  1.0
  Br-  Br82  1  0.61960000  0.41666667  0.88040000  1.0
  Br-  Br83  1  0.61960000  0.91666667  0.88040000  1.0
  Br-  Br84  1  0.11960000  0.41666667  0.38040000  1.0
  Br-  Br85  1  0.11960000  0.91666667  0.38040000  1.0
  Br-  Br86  1  0.11960000  0.41666667  0.88040000  1.0
  Br-  Br87  1  0.11960000  0.91666667  0.88040000  1.0
  Br-  Br88  1  0.61960000  0.25000000  0.38040000  1.0
  Br-  Br89  1  0.61960000  0.75000000  0.38040000  1.0
  Br-  Br90  1  0.61960000  0.25000000  0.88040000  1.0
  Br-  Br91  1  0.61960000  0.75000000  0.88040000  1.0
  Br-  Br92  1  0.11960000  0.25000000  0.38040000  1.0
  Br-  Br93  1  0.11960000  0.75000000  0.38040000  1.0
  Br-  Br94  1  0.11960000  0.25000000  0.88040000  1.0
  Br-  Br95  1  0.11960000  0.75000000  0.88040000  1.0
  Br-  Br96  1  0.88040000  0.58333333  0.11960000  1.0
  Br-  Br97  1  0.88040000  0.08333333  0.11960000  1.0
  Br-  Br98  1  0.88040000  0.58333333  0.61960000  1.0
  Br-  Br99  1  0.88040000  0.08333333  0.61960000  1.0
  Br-  Br100  1  0.38040000  0.58333333  0.11960000  1.0
  Br-  Br101  1  0.38040000  0.08333333  0.11960000  1.0
  Br-  Br102  1  0.38040000  0.58333333  0.61960000  1.0
  Br-  Br103  1  0.38040000  0.08333333  0.61960000  1.0
  Br-  Br104  1  0.88040000  0.41666667  0.11960000  1.0
  Br-  Br105  1  0.88040000  0.91666667  0.11960000  1.0
  Br-  Br106  1  0.88040000  0.41666667  0.61960000  1.0
  Br-  Br107  1  0.88040000  0.91666667  0.61960000  1.0
  Br-  Br108  1  0.38040000  0.41666667  0.11960000  1.0
  Br-  Br109  1  0.38040000  0.91666667  0.11960000  1.0
  Br-  Br110  1  0.38040000  0.41666667  0.61960000  1.0
  Br-  Br111  1  0.38040000  0.91666667  0.61960000  1.0
  Br-  Br112  1  0.88040000  0.25000000  0.11960000  1.0
  Br-  Br113  1  0.88040000  0.75000000  0.11960000  1.0
  Br-  Br114  1  0.88040000  0.25000000  0.61960000  1.0
  Br-  Br115  1  0.88040000  0.75000000  0.61960000  1.0
  Br-  Br116  1  0.38040000  0.25000000  0.11960000  1.0
  Br-  Br117  1  0.38040000  0.75000000  0.11960000  1.0
  Br-  Br118  1  0.38040000  0.25000000  0.61960000  1.0
  Br-  Br119  1  0.38040000  0.75000000  0.61960000  1.0
  Br-  Br120  1  0.87910000  0.50000000  0.37910000  1.0
  Br-  Br121  1  0.87910000  0.00000000  0.37910000  1.0
  Br-  Br122  1  0.87910000  0.50000000  0.87910000  1.0
  Br-  Br123  1  0.87910000  0.00000000  0.87910000  1.0
  Br-  Br124  1  0.37910000  0.50000000  0.37910000  1.0
  Br-  Br125  1  0.37910000  0.00000000  0.37910000  1.0
  Br-  Br126  1  0.37910000  0.50000000  0.87910000  1.0
  Br-  Br127  1  0.37910000  0.00000000  0.87910000  1.0
  Br-  Br128  1  0.87910000  0.33333333  0.37910000  1.0
  Br-  Br129  1  0.87910000  0.83333333  0.37910000  1.0
  Br-  Br130  1  0.87910000  0.33333333  0.87910000  1.0
  Br-  Br131  1  0.87910000  0.83333333  0.87910000  1.0
  Br-  Br132  1  0.37910000  0.33333333  0.37910000  1.0
  Br-  Br133  1  0.37910000  0.83333333  0.37910000  1.0
  Br-  Br134  1  0.37910000  0.33333333  0.87910000  1.0
  Br-  Br135  1  0.37910000  0.83333333  0.87910000  1.0
  Br-  Br136  1  0.87910000  0.66666667  0.37910000  1.0
  Br-  Br137  1  0.87910000  0.16666667  0.37910000  1.0
  Br-  Br138  1  0.87910000  0.66666667  0.87910000  1.0
  Br-  Br139  1  0.87910000  0.16666667  0.87910000  1.0
  Br-  Br140  1  0.37910000  0.66666667  0.37910000  1.0
  Br-  Br141  1  0.37910000  0.16666667  0.37910000  1.0
  Br-  Br142  1  0.37910000  0.66666667  0.87910000  1.0
  Br-  Br143  1  0.37910000  0.16666667  0.87910000  1.0
  Br-  Br144  1  0.62090000  0.50000000  0.12090000  1.0
  Br-  Br145  1  0.62090000  0.00000000  0.12090000  1.0
  Br-  Br146  1  0.62090000  0.50000000  0.62090000  1.0
  Br-  Br147  1  0.62090000  0.00000000  0.62090000  1.0
  Br-  Br148  1  0.12090000  0.50000000  0.12090000  1.0
  Br-  Br149  1  0.12090000  0.00000000  0.12090000  1.0
  Br-  Br150  1  0.12090000  0.50000000  0.62090000  1.0
  Br-  Br151  1  0.12090000  0.00000000  0.62090000  1.0
  Br-  Br152  1  0.62090000  0.33333333  0.12090000  1.0
  Br-  Br153  1  0.62090000  0.83333333  0.12090000  1.0
  Br-  Br154  1  0.62090000  0.33333333  0.62090000  1.0
  Br-  Br155  1  0.62090000  0.83333333  0.62090000  1.0
  Br-  Br156  1  0.12090000  0.33333333  0.12090000  1.0
  Br-  Br157  1  0.12090000  0.83333333  0.12090000  1.0
  Br-  Br158  1  0.12090000  0.33333333  0.62090000  1.0
  Br-  Br159  1  0.12090000  0.83333333  0.62090000  1.0
  Br-  Br160  1  0.62090000  0.66666667  0.12090000  1.0
  Br-  Br161  1  0.62090000  0.16666667  0.12090000  1.0
  Br-  Br162  1  0.62090000  0.66666667  0.62090000  1.0
  Br-  Br163  1  0.62090000  0.16666667  0.62090000  1.0
  Br-  Br164  1  0.12090000  0.66666667  0.12090000  1.0
  Br-  Br165  1  0.12090000  0.16666667  0.12090000  1.0
  Br-  Br166  1  0.12090000  0.66666667  0.62090000  1.0
  Br-  Br167  1  0.12090000  0.16666667  0.62090000  1.0
