# generated using pymatgen
data_Li2MgBr4
_symmetry_space_group_name_H-M   'P 1'
_cell_length_a   23.19300000
_cell_length_b   13.50762269
_cell_length_c   13.50762269
_cell_angle_alpha   109.67089494
_cell_angle_beta   90.00000000
_cell_angle_gamma   90.00000000
_symmetry_Int_Tables_number   1
_chemical_formula_structural   Li2MgBr4
_chemical_formula_sum   'Li48 Mg24 Br96'
_cell_volume   3984.74408328
_cell_formula_units_Z   24
loop_
 _symmetry_equiv_pos_site_id
 _symmetry_equiv_pos_as_xyz
  1  'x, y, z'
loop_
 _atom_type_symbol
 _atom_type_oxidation_number
  Li+  1.0
  Mg2+  2.0
  Br-  -1.0
loop_
 _atom_site_type_symbol
 _atom_site_label
 _atom_site_symmetry_multiplicity
 _atom_site_fract_x
 _atom_site_fract_y
 _atom_site_fract_z
 _atom_site_occupancy
  Li+  Li1  1  0.08333333  0.50000000  0.25000000  1.0
  Li+  Li1  1  0.58333333  0.50000000  0.25000000  1.0
  Li+  Li1  1  0.08333333  0.50000000  0.75000000  1.0
  Li+  Li1  1  0.58333333  0.50000000  0.75000000  1.0
  Li+  Li1  1  0.08333333  0.00000000  0.25000000  1.0
  Li+  Li1  1  0.58333333  0.00000000  0.25000000  1.0
  Li+  Li1  1  0.08333333  0.00000000  0.75000000  1.0
  Li+  Li1  1  0.58333333  0.00000000  0.75000000  1.0
  Li+  Li1  1  0.25000000  0.50000000  0.25000000  1.0
  Li+  Li1  1  0.75000000  0.50000000  0.25000000  1.0
  Li+  Li1  1  0.25000000  0.50000000  0.75000000  1.0
  Li+  Li1  1  0.75000000  0.50000000  0.75000000  1.0
  Li+  Li1  1  0.25000000  0.00000000  0.25000000  1.0
  Li+  Li1  1  0.75000000  0.00000000  0.25000000  1.0
  Li+  Li1  1  0.25000000  0.00000000  0.75000000  1.0
  Li+  Li1  1  0.75000000  0.00000000  0.75000000  1.0
  Li+  Li1  1  0.41666666  0.50000000  0.25000000  1.0
  Li+  Li1  1  0.91666667  0.50000000  0.25000000  1.0
  Li+  Li1  1  0.41666666  0.50000000  0.75000000  1.0
  Li+  Li1  1  0.91666667  0.50000000  0.75000000  1.0
  Li+  Li1  1  0.41666666  0.00000000  0.25000000  1.0
  Li+  Li1  1  0.91666667  0.00000000  0.25000000  1.0
  Li+  Li1  1  0.41666666  0.00000000  0.75000000  1.0
  Li+  Li1  1  0.91666667  0.00000000  0.75000000  1.0
  Li+  Li1  1  0.08333333  0.25000000  0.50000000  1.0
  Li+  Li1  1  0.58333333  0.25000000  0.50000000  1.0
  Li+  Li1  1  0.08333333  0.25000000  0.00000000  1.0
  Li+  Li1  1  0.58333333  0.25000000  0.00000000  1.0
  Li+  Li1  1  0.08333333  0.75000000  0.50000000  1.0
  Li+  Li1  1  0.58333333  0.75000000  0.50000000  1.0
  Li+  Li1  1  0.08333333  0.75000000  0.00000000  1.0
  Li+  Li1  1  0.58333333  0.75000000  0.00000000  1.0
  Li+  Li1  1  0.25000000  0.25000000  0.50000000  1.0
  Li+  Li1  1  0.75000000  0.25000000  0.50000000  1.0
  Li+  Li1  1  0.25000000  0.25000000  0.00000000  1.0
  Li+  Li1  1  0.75000000  0.25000000  0.00000000  1.0
  Li+  Li1  1  0.25000000  0.75000000  0.50000000  1.0
  Li+  Li1  1  0.75000000  0.75000000  0.50000000  1.0
  Li+  Li1  1  0.25000000  0.75000000  0.00000000  1.0
  Li+  Li1  1  0.75000000  0.75000000  0.00000000  1.0
  Li+  Li1  1  0.41666666  0.25000000  0.50000000  1.0
  Li+  Li1  1  0.91666667  0.25000000  0.50000000  1.0
  Li+  Li1  1  0.41666666  0.25000000  0.00000000  1.0
  Li+  Li1  1  0.91666667  0.25000000  0.00000000  1.0
  Li+  Li1  1  0.41666666  0.75000000  0.50000000  1.0
  Li+  Li1  1  0.91666667  0.75000000  0.50000000  1.0
  Li+  Li1  1  0.41666666  0.75000000  0.00000000  1.0
  Li+  Li1  1  0.91666667  0.75000000  0.00000000  1.0
  Mg2+  Mg1  1  0.00000000  0.00000000  0.00000000  1.0
  Mg2+  Mg1  1  0.50000000  0.00000000  0.00000000  1.0
  Mg2+  Mg1  1  0.00000000  0.00000000  0.50000000  1.0
  Mg2+  Mg1  1  0.50000000  0.00000000  0.50000000  1.0
  Mg2+  Mg1  1  0.00000000  0.50000000  0.00000000  1.0
  Mg2+  Mg1  1  0.50000000  0.50000000  0.00000000  1.0
  Mg2+  Mg1  1  0.00000000  0.50000000  0.50000000  1.0
  Mg2+  Mg1  1  0.50000000  0.50000000  0.50000000  1.0
  Mg2+  Mg1  1  0.16666667  0.00000000  0.00000000  1.0
  Mg2+  Mg1  1  0.66666667  0.00000000  0.00000000  1.0
  Mg2+  Mg1  1  0.16666667  0.00000000  0.50000000  1.0
  Mg2+  Mg1  1  0.66666667  0.00000000  0.50000000  1.0
  Mg2+  Mg1  1  0.16666667  0.50000000  0.00000000  1.0
  Mg2+  Mg1  1  0.66666667  0.50000000  0.00000000  1.0
  Mg2+  Mg1  1  0.16666667  0.50000000  0.50000000  1.0
  Mg2+  Mg1  1  0.66666667  0.50000000  0.50000000  1.0
  Mg2+  Mg1  1  0.33333333  0.00000000  0.00000000  1.0
  Mg2+  Mg1  1  0.83333333  0.00000000  0.00000000  1.0
  Mg2+  Mg1  1  0.33333333  0.00000000  0.50000000  1.0
  Mg2+  Mg1  1  0.83333333  0.00000000  0.50000000  1.0
  Mg2+  Mg1  1  0.33333333  0.50000000  0.00000000  1.0
  Mg2+  Mg1  1  0.83333333  0.50000000  0.00000000  1.0
  Mg2+  Mg1  1  0.33333333  0.50000000  0.50000000  1.0
  Mg2+  Mg1  1  0.83333333  0.50000000  0.50000000  1.0
  Br-  Br1  1  0.08333333  0.38040000  0.38040000  1.0
  Br-  Br1  1  0.58333333  0.38040000  0.38040000  1.0
  Br-  Br1  1  0.08333333  0.38040000  0.88040000  1.0
  Br-  Br1  1  0.58333333  0.38040000  0.88040000  1.0
  Br-  Br1  1  0.08333333  0.88040000  0.38040000  1.0
  Br-  Br1  1  0.58333333  0.88040000  0.38040000  1.0
  Br-  Br1  1  0.08333333  0.88040000  0.88040000  1.0
  Br-  Br1  1  0.58333333  0.88040000  0.88040000  1.0
  Br-  Br1  1  0.25000000  0.38040000  0.38040000  1.0
  Br-  Br1  1  0.75000000  0.38040000  0.38040000  1.0
  Br-  Br1  1  0.25000000  0.38040000  0.88040000  1.0
  Br-  Br1  1  0.75000000  0.38040000  0.88040000  1.0
  Br-  Br1  1  0.25000000  0.88040000  0.38040000  1.0
  Br-  Br1  1  0.75000000  0.88040000  0.38040000  1.0
  Br-  Br1  1  0.25000000  0.88040000  0.88040000  1.0
  Br-  Br1  1  0.75000000  0.88040000  0.88040000  1.0
  Br-  Br1  1  0.41666666  0.38040000  0.38040000  1.0
  Br-  Br1  1  0.91666667  0.38040000  0.38040000  1.0
  Br-  Br1  1  0.41666666  0.38040000  0.88040000  1.0
  Br-  Br1  1  0.91666667  0.38040000  0.88040000  1.0
  Br-  Br1  1  0.41666667  0.88040000  0.38040000  1.0
  Br-  Br1  1  0.91666667  0.88040000  0.38040000  1.0
  Br-  Br1  1  0.41666667  0.88040000  0.88040000  1.0
  Br-  Br1  1  0.91666667  0.88040000  0.88040000  1.0
  Br-  Br1  1  0.08333333  0.11960000  0.11960000  1.0
  Br-  Br1  1  0.58333333  0.11960000  0.11960000  1.0
  Br-  Br1  1  0.08333333  0.11960000  0.61960000  1.0
  Br-  Br1  1  0.58333333  0.11960000  0.61960000  1.0
  Br-  Br1  1  0.08333333  0.61960000  0.11960000  1.0
  Br-  Br1  1  0.58333333  0.61960000  0.11960000  1.0
  Br-  Br1  1  0.08333333  0.61960000  0.61960000  1.0
  Br-  Br1  1  0.58333333  0.61960000  0.61960000  1.0
  Br-  Br1  1  0.25000000  0.11960000  0.11960000  1.0
  Br-  Br1  1  0.75000000  0.11960000  0.11960000  1.0
  Br-  Br1  1  0.25000000  0.11960000  0.61960000  1.0
  Br-  Br1  1  0.75000000  0.11960000  0.61960000  1.0
  Br-  Br1  1  0.25000000  0.61960000  0.11960000  1.0
  Br-  Br1  1  0.75000000  0.61960000  0.11960000  1.0
  Br-  Br1  1  0.25000000  0.61960000  0.61960000  1.0
  Br-  Br1  1  0.75000000  0.61960000  0.61960000  1.0
  Br-  Br1  1  0.41666666  0.11960000  0.11960000  1.0
  Br-  Br1  1  0.91666667  0.11960000  0.11960000  1.0
  Br-  Br1  1  0.41666666  0.11960000  0.61960000  1.0
  Br-  Br1  1  0.91666667  0.11960000  0.61960000  1.0
  Br-  Br1  1  0.41666666  0.61960000  0.11960000  1.0
  Br-  Br1  1  0.91666667  0.61960000  0.11960000  1.0
  Br-  Br1  1  0.41666666  0.61960000  0.61960000  1.0
  Br-  Br1  1  0.91666667  0.61960000  0.61960000  1.0
  Br-  Br2  1  0.16666667  0.12090000  0.37910000  1.0
  Br-  Br2  1  0.66666667  0.12090000  0.37910000  1.0
  Br-  Br2  1  0.16666667  0.12090000  0.87910000  1.0
  Br-  Br2  1  0.66666667  0.12090000  0.87910000  1.0
  Br-  Br2  1  0.16666667  0.62090000  0.37910000  1.0
  Br-  Br2  1  0.66666667  0.62090000  0.37910000  1.0
  Br-  Br2  1  0.16666667  0.62090000  0.87910000  1.0
  Br-  Br2  1  0.66666667  0.62090000  0.87910000  1.0
  Br-  Br2  1  0.33333333  0.12090000  0.37910000  1.0
  Br-  Br2  1  0.83333333  0.12090000  0.37910000  1.0
  Br-  Br2  1  0.33333333  0.12090000  0.87910000  1.0
  Br-  Br2  1  0.83333333  0.12090000  0.87910000  1.0
  Br-  Br2  1  0.33333333  0.62090000  0.37910000  1.0
  Br-  Br2  1  0.83333333  0.62090000  0.37910000  1.0
  Br-  Br2  1  0.33333333  0.62090000  0.87910000  1.0
  Br-  Br2  1  0.83333333  0.62090000  0.87910000  1.0
  Br-  Br2  1  0.00000000  0.12090000  0.37910000  1.0
  Br-  Br2  1  0.50000000  0.12090000  0.37910000  1.0
  Br-  Br2  1  0.00000000  0.12090000  0.87910000  1.0
  Br-  Br2  1  0.50000000  0.12090000  0.87910000  1.0
  Br-  Br2  1  0.00000000  0.62090000  0.37910000  1.0
  Br-  Br2  1  0.50000000  0.62090000  0.37910000  1.0
  Br-  Br2  1  0.00000000  0.62090000  0.87910000  1.0
  Br-  Br2  1  0.50000000  0.62090000  0.87910000  1.0
  Br-  Br2  1  0.16666667  0.37910000  0.12090000  1.0
  Br-  Br2  1  0.66666667  0.37910000  0.12090000  1.0
  Br-  Br2  1  0.16666667  0.37910000  0.62090000  1.0
  Br-  Br2  1  0.66666667  0.37910000  0.62090000  1.0
  Br-  Br2  1  0.16666667  0.87910000  0.12090000  1.0
  Br-  Br2  1  0.66666667  0.87910000  0.12090000  1.0
  Br-  Br2  1  0.16666667  0.87910000  0.62090000  1.0
  Br-  Br2  1  0.66666667  0.87910000  0.62090000  1.0
  Br-  Br2  1  0.33333333  0.37910000  0.12090000  1.0
  Br-  Br2  1  0.83333333  0.37910000  0.12090000  1.0
  Br-  Br2  1  0.33333333  0.37910000  0.62090000  1.0
  Br-  Br2  1  0.83333333  0.37910000  0.62090000  1.0
  Br-  Br2  1  0.33333333  0.87910000  0.12090000  1.0
  Br-  Br2  1  0.83333333  0.87910000  0.12090000  1.0
  Br-  Br2  1  0.33333333  0.87910000  0.62090000  1.0
  Br-  Br2  1  0.83333333  0.87910000  0.62090000  1.0
  Br-  Br2  1  0.00000000  0.37910000  0.12090000  1.0
  Br-  Br2  1  0.50000000  0.37910000  0.12090000  1.0
  Br-  Br2  1  0.00000000  0.37910000  0.62090000  1.0
  Br-  Br2  1  0.50000000  0.37910000  0.62090000  1.0
  Br-  Br2  1  0.00000000  0.87910000  0.12090000  1.0
  Br-  Br2  1  0.50000000  0.87910000  0.12090000  1.0
  Br-  Br2  1  0.00000000  0.87910000  0.62090000  1.0
  Br-  Br2  1  0.50000000  0.87910000  0.62090000  1.0
