# generated using pymatgen
data_LiGaBr4
_symmetry_space_group_name_H-M   'P 1'
_cell_length_a   13.70800000
_cell_length_b   27.39200000
_cell_length_c   14.83200000
_cell_angle_alpha   93.14000000
_cell_angle_beta   90.00000000
_cell_angle_gamma   90.00000000
_symmetry_Int_Tables_number   1
_chemical_formula_structural   LiGaBr4
_chemical_formula_sum   'Li32 Ga32 Br128'
_cell_volume   5560.89951556
_cell_formula_units_Z   32
loop_
 _symmetry_equiv_pos_site_id
 _symmetry_equiv_pos_as_xyz
  1  'x, y, z'
loop_
 _atom_type_symbol
 _atom_type_oxidation_number
  Li+  1.0
  Ga3+  3.0
  Br-  -1.0
loop_
 _atom_site_type_symbol
 _atom_site_label
 _atom_site_symmetry_multiplicity
 _atom_site_fract_x
 _atom_site_fract_y
 _atom_site_fract_z
 _atom_site_occupancy
  Li+  Li0  1  0.25590000  0.56345000  0.67155000  1.0
  Li+  Li1  1  0.25590000  0.06345000  0.67155000  1.0
  Li+  Li2  1  0.25590000  0.56345000  0.17155000  1.0
  Li+  Li3  1  0.25590000  0.06345000  0.17155000  1.0
  Li+  Li4  1  0.75510929  0.56247574  0.67094488  1.0
  Li+  Li5  1  0.75425555  0.06461665  0.67045235  1.0
  Li+  Li6  1  0.75590000  0.56345000  0.17155000  1.0
  Li+  Li7  1  0.75590000  0.06345000  0.17155000  1.0
  Li+  Li8  1  0.00590000  0.68655000  0.32845000  1.0
  Li+  Li9  1  0.00652868  0.18509359  0.32684193  1.0
  Li+  Li10  1  0.00590000  0.68655000  0.82845000  1.0
  Li+  Li11  1  0.00590000  0.18655000  0.82845000  1.0
  Li+  Li12  1  0.50429012  0.67953612  0.32749345  1.0
  Li+  Li13  1  0.50590000  0.18655000  0.32845000  1.0
  Li+  Li14  1  0.50590000  0.68655000  0.82845000  1.0
  Li+  Li15  1  0.50833341  0.18604279  0.83083575  1.0
  Li+  Li16  1  0.24410000  0.93655000  0.32845000  1.0
  Li+  Li17  1  0.24410000  0.43655000  0.32845000  1.0
  Li+  Li18  1  0.24410000  0.93655000  0.82845000  1.0
  Li+  Li19  1  0.24410000  0.43655000  0.82845000  1.0
  Li+  Li20  1  0.74410000  0.93655000  0.32845000  1.0
  Li+  Li21  1  0.74410000  0.43655000  0.32845000  1.0
  Li+  Li22  1  0.74410000  0.93655000  0.82845000  1.0
  Li+  Li23  1  0.74410000  0.43655000  0.82845000  1.0
  Li+  Li24  1  0.49535923  0.81179693  0.67199534  1.0
  Li+  Li25  1  0.49410000  0.31345000  0.67155000  1.0
  Li+  Li26  1  0.49447584  0.80986952  0.16475931  1.0
  Li+  Li27  1  0.49694728  0.31006630  0.16773095  1.0
  Li+  Li28  1  0.99410000  0.81345000  0.67155000  1.0
  Li+  Li29  1  0.99410000  0.31345000  0.67155000  1.0
  Li+  Li30  1  0.99410000  0.81345000  0.17155000  1.0
  Li+  Li31  1  0.99434765  0.31403827  0.17139400  1.0
  Ga3+  Ga32  1  0.09059110  0.80283498  0.39719905  1.0
  Ga3+  Ga33  1  0.08885000  0.30010000  0.39780000  1.0
  Ga3+  Ga34  1  0.08885000  0.80010000  0.89780000  1.0
  Ga3+  Ga35  1  0.08885000  0.30010000  0.89780000  1.0
  Ga3+  Ga36  1  0.58885000  0.80010000  0.39780000  1.0
  Ga3+  Ga37  1  0.59038768  0.29521616  0.39984633  1.0
  Ga3+  Ga38  1  0.58830566  0.80122432  0.89829550  1.0
  Ga3+  Ga39  1  0.58885000  0.30010000  0.89780000  1.0
  Ga3+  Ga40  1  0.33885000  0.94990000  0.60220000  1.0
  Ga3+  Ga41  1  0.33885000  0.44990000  0.60220000  1.0
  Ga3+  Ga42  1  0.33885000  0.94990000  0.10220000  1.0
  Ga3+  Ga43  1  0.33885000  0.44990000  0.10220000  1.0
  Ga3+  Ga44  1  0.83885000  0.94990000  0.60220000  1.0
  Ga3+  Ga45  1  0.83885000  0.44990000  0.60220000  1.0
  Ga3+  Ga46  1  0.83885000  0.94990000  0.10220000  1.0
  Ga3+  Ga47  1  0.83838766  0.45258215  0.10395524  1.0
  Ga3+  Ga48  1  0.41115000  0.69990000  0.60220000  1.0
  Ga3+  Ga49  1  0.41115000  0.19990000  0.60220000  1.0
  Ga3+  Ga50  1  0.41115000  0.69990000  0.10220000  1.0
  Ga3+  Ga51  1  0.41185847  0.19809694  0.09850803  1.0
  Ga3+  Ga52  1  0.91364168  0.70429373  0.59920740  1.0
  Ga3+  Ga53  1  0.91115000  0.19990000  0.60220000  1.0
  Ga3+  Ga54  1  0.91115000  0.69990000  0.10220000  1.0
  Ga3+  Ga55  1  0.91115000  0.19990000  0.10220000  1.0
  Ga3+  Ga56  1  0.16115000  0.55010000  0.39780000  1.0
  Ga3+  Ga57  1  0.16110317  0.05023563  0.39861127  1.0
  Ga3+  Ga58  1  0.15775419  0.55033858  0.89645603  1.0
  Ga3+  Ga59  1  0.16115000  0.05010000  0.89780000  1.0
  Ga3+  Ga60  1  0.66115000  0.55010000  0.39780000  1.0
  Ga3+  Ga61  1  0.66115000  0.05010000  0.39780000  1.0
  Ga3+  Ga62  1  0.66115000  0.55010000  0.89780000  1.0
  Ga3+  Ga63  1  0.66115000  0.05010000  0.89780000  1.0
  Br-  Br64  1  0.16170000  0.72435000  0.40475000  1.0
  Br-  Br65  1  0.16170000  0.22435000  0.40475000  1.0
  Br-  Br66  1  0.16170000  0.72435000  0.90475000  1.0
  Br-  Br67  1  0.16170000  0.22435000  0.90475000  1.0
  Br-  Br68  1  0.66170000  0.72435000  0.40475000  1.0
  Br-  Br69  1  0.66170000  0.22435000  0.40475000  1.0
  Br-  Br70  1  0.66170000  0.72435000  0.90475000  1.0
  Br-  Br71  1  0.66371980  0.22026022  0.90094124  1.0
  Br-  Br72  1  0.41170000  0.52565000  0.59525000  1.0
  Br-  Br73  1  0.41170000  0.02565000  0.59525000  1.0
  Br-  Br74  1  0.41170000  0.52565000  0.09525000  1.0
  Br-  Br75  1  0.41170000  0.02565000  0.09525000  1.0
  Br-  Br76  1  0.91445812  0.52047649  0.59457711  1.0
  Br-  Br77  1  0.91170000  0.02565000  0.59525000  1.0
  Br-  Br78  1  0.91170000  0.52565000  0.09525000  1.0
  Br-  Br79  1  0.91561671  0.02193258  0.08975555  1.0
  Br-  Br80  1  0.34049269  0.77785469  0.59494468  1.0
  Br-  Br81  1  0.33830000  0.27565000  0.59525000  1.0
  Br-  Br82  1  0.33830000  0.77565000  0.09525000  1.0
  Br-  Br83  1  0.33830000  0.27565000  0.09525000  1.0
  Br-  Br84  1  0.83830000  0.77565000  0.59525000  1.0
  Br-  Br85  1  0.83830000  0.27565000  0.59525000  1.0
  Br-  Br86  1  0.83830000  0.77565000  0.09525000  1.0
  Br-  Br87  1  0.83830000  0.27565000  0.09525000  1.0
  Br-  Br88  1  0.08830000  0.97435000  0.40475000  1.0
  Br-  Br89  1  0.08399806  0.47341010  0.40442286  1.0
  Br-  Br90  1  0.08830000  0.97435000  0.90475000  1.0
  Br-  Br91  1  0.08830000  0.47435000  0.90475000  1.0
  Br-  Br92  1  0.58830000  0.97435000  0.40475000  1.0
  Br-  Br93  1  0.58830000  0.47435000  0.40475000  1.0
  Br-  Br94  1  0.58830000  0.97435000  0.90475000  1.0
  Br-  Br95  1  0.58830000  0.47435000  0.90475000  1.0
  Br-  Br96  1  0.42990000  0.78470000  0.34580000  1.0
  Br-  Br97  1  0.42990000  0.28470000  0.34580000  1.0
  Br-  Br98  1  0.42597031  0.78871567  0.84843611  1.0
  Br-  Br99  1  0.42679067  0.28561727  0.84554248  1.0
  Br-  Br100  1  0.92990000  0.78470000  0.34580000  1.0
  Br-  Br101  1  0.92990000  0.28470000  0.34580000  1.0
  Br-  Br102  1  0.92990000  0.78470000  0.84580000  1.0
  Br-  Br103  1  0.92990000  0.28470000  0.84580000  1.0
  Br-  Br104  1  0.17990000  0.96530000  0.65420000  1.0
  Br-  Br105  1  0.17990000  0.46530000  0.65420000  1.0
  Br-  Br106  1  0.17990000  0.96530000  0.15420000  1.0
  Br-  Br107  1  0.17990000  0.46530000  0.15420000  1.0
  Br-  Br108  1  0.67990000  0.96530000  0.65420000  1.0
  Br-  Br109  1  0.67990000  0.46530000  0.65420000  1.0
  Br-  Br110  1  0.67990000  0.96530000  0.15420000  1.0
  Br-  Br111  1  0.67882783  0.46494019  0.15318787  1.0
  Br-  Br112  1  0.07010000  0.71530000  0.65420000  1.0
  Br-  Br113  1  0.07010000  0.21530000  0.65420000  1.0
  Br-  Br114  1  0.07010000  0.71530000  0.15420000  1.0
  Br-  Br115  1  0.07010000  0.21530000  0.15420000  1.0
  Br-  Br116  1  0.57010000  0.71530000  0.65420000  1.0
  Br-  Br117  1  0.57010000  0.21530000  0.65420000  1.0
  Br-  Br118  1  0.57010000  0.71530000  0.15420000  1.0
  Br-  Br119  1  0.57010000  0.21530000  0.15420000  1.0
  Br-  Br120  1  0.32010000  0.53470000  0.34580000  1.0
  Br-  Br121  1  0.32010000  0.03470000  0.34580000  1.0
  Br-  Br122  1  0.32010000  0.53470000  0.84580000  1.0
  Br-  Br123  1  0.31908231  0.03249524  0.84926173  1.0
  Br-  Br124  1  0.82412350  0.53443131  0.34321689  1.0
  Br-  Br125  1  0.82010000  0.03470000  0.34580000  1.0
  Br-  Br126  1  0.82010000  0.53470000  0.84580000  1.0
  Br-  Br127  1  0.81814846  0.03260491  0.84714358  1.0
  Br-  Br128  1  0.16125000  0.84290000  0.28245000  1.0
  Br-  Br129  1  0.16125000  0.34290000  0.28245000  1.0
  Br-  Br130  1  0.16125000  0.84290000  0.78245000  1.0
  Br-  Br131  1  0.16125000  0.34290000  0.78245000  1.0
  Br-  Br132  1  0.66125000  0.84290000  0.28245000  1.0
  Br-  Br133  1  0.66125000  0.34290000  0.28245000  1.0
  Br-  Br134  1  0.66387093  0.84578881  0.78175675  1.0
  Br-  Br135  1  0.66125000  0.34290000  0.78245000  1.0
  Br-  Br136  1  0.41125000  0.90710000  0.71755000  1.0
  Br-  Br137  1  0.41125000  0.40710000  0.71755000  1.0
  Br-  Br138  1  0.40699009  0.90509638  0.21734182  1.0
  Br-  Br139  1  0.41125000  0.40710000  0.21755000  1.0
  Br-  Br140  1  0.91125000  0.90710000  0.71755000  1.0
  Br-  Br141  1  0.90847761  0.40839319  0.71720944  1.0
  Br-  Br142  1  0.91029700  0.90743388  0.21187435  1.0
  Br-  Br143  1  0.91125000  0.40710000  0.21755000  1.0
  Br-  Br144  1  0.33875000  0.65710000  0.71755000  1.0
  Br-  Br145  1  0.33947122  0.15646418  0.71756724  1.0
  Br-  Br146  1  0.33809726  0.65830192  0.21741613  1.0
  Br-  Br147  1  0.33875000  0.15710000  0.21755000  1.0
  Br-  Br148  1  0.83875000  0.65710000  0.71755000  1.0
  Br-  Br149  1  0.83875000  0.15710000  0.71755000  1.0
  Br-  Br150  1  0.83875000  0.65710000  0.21755000  1.0
  Br-  Br151  1  0.83387241  0.15611304  0.21883701  1.0
  Br-  Br152  1  0.08875000  0.59290000  0.28245000  1.0
  Br-  Br153  1  0.08875000  0.09290000  0.28245000  1.0
  Br-  Br154  1  0.08704201  0.59421149  0.78263031  1.0
  Br-  Br155  1  0.08875000  0.09290000  0.78245000  1.0
  Br-  Br156  1  0.58875000  0.59290000  0.28245000  1.0
  Br-  Br157  1  0.58875000  0.09290000  0.28245000  1.0
  Br-  Br158  1  0.58875000  0.59290000  0.78245000  1.0
  Br-  Br159  1  0.58875000  0.09290000  0.78245000  1.0
  Br-  Br160  1  0.09490000  0.84635000  0.53195000  1.0
  Br-  Br161  1  0.09490000  0.34635000  0.53195000  1.0
  Br-  Br162  1  0.09303592  0.84912949  0.03110618  1.0
  Br-  Br163  1  0.09174635  0.34245608  0.02980987  1.0
  Br-  Br164  1  0.59490000  0.84635000  0.53195000  1.0
  Br-  Br165  1  0.59490000  0.34635000  0.53195000  1.0
  Br-  Br166  1  0.59818761  0.84958950  0.02961343  1.0
  Br-  Br167  1  0.59490000  0.34635000  0.03195000  1.0
  Br-  Br168  1  0.34851861  0.90511819  0.47041240  1.0
  Br-  Br169  1  0.34490000  0.40365000  0.46805000  1.0
  Br-  Br170  1  0.34490000  0.90365000  0.96805000  1.0
  Br-  Br171  1  0.34490000  0.40365000  0.96805000  1.0
  Br-  Br172  1  0.84131829  0.90431946  0.46873358  1.0
  Br-  Br173  1  0.84490000  0.40365000  0.46805000  1.0
  Br-  Br174  1  0.84490000  0.90365000  0.96805000  1.0
  Br-  Br175  1  0.84490000  0.40365000  0.96805000  1.0
  Br-  Br176  1  0.40131500  0.65630291  0.47017924  1.0
  Br-  Br177  1  0.40510000  0.15365000  0.46805000  1.0
  Br-  Br178  1  0.40510000  0.65365000  0.96805000  1.0
  Br-  Br179  1  0.40510000  0.15365000  0.96805000  1.0
  Br-  Br180  1  0.90632167  0.65282498  0.46653112  1.0
  Br-  Br181  1  0.90510000  0.15365000  0.46805000  1.0
  Br-  Br182  1  0.90510000  0.65365000  0.96805000  1.0
  Br-  Br183  1  0.90510000  0.15365000  0.96805000  1.0
  Br-  Br184  1  0.15510000  0.59635000  0.53195000  1.0
  Br-  Br185  1  0.15536936  0.09548373  0.53425105  1.0
  Br-  Br186  1  0.15427776  0.59760745  0.03120173  1.0
  Br-  Br187  1  0.15538574  0.09432141  0.03717509  1.0
  Br-  Br188  1  0.65455075  0.59603449  0.52826102  1.0
  Br-  Br189  1  0.65087644  0.09743815  0.53165816  1.0
  Br-  Br190  1  0.65510000  0.59635000  0.03195000  1.0
  Br-  Br191  1  0.65510000  0.09635000  0.03195000  1.0
