# generated using pymatgen
data_LiGaBr4
_symmetry_space_group_name_H-M   'P 1'
_cell_length_a   14.77685980
_cell_length_b   13.65703844
_cell_length_c   27.29016609
_cell_angle_alpha   90.00000000
_cell_angle_beta   86.86000000
_cell_angle_gamma   90.00000000
_symmetry_Int_Tables_number   1
_chemical_formula_structural   LiGaBr4
_chemical_formula_sum   'Li32 Ga32 Br128'
_cell_volume   5499.10934633
_cell_formula_units_Z   32
loop_
 _symmetry_equiv_pos_site_id
 _symmetry_equiv_pos_as_xyz
  1  'x, y, z'
loop_
 _atom_type_symbol
 _atom_type_oxidation_number
  Li+  1.0
  Ga3+  3.0
  Br-  -1.0
loop_
 _atom_site_type_symbol
 _atom_site_label
 _atom_site_symmetry_multiplicity
 _atom_site_fract_x
 _atom_site_fract_y
 _atom_site_fract_z
 _atom_site_occupancy
  Li+  Li0  1  0.92155000  0.41076667  0.43655000  1.0
  Li+  Li1  1  0.92155000  0.41076667  0.93655000  1.0
  Li+  Li2  1  0.42155000  0.41076667  0.43655000  1.0
  Li+  Li3  1  0.42155000  0.41076667  0.93655000  1.0
  Li+  Li4  1  0.92155000  0.91076667  0.43655000  1.0
  Li+  Li5  1  0.92155000  0.91076667  0.93655000  1.0
  Li+  Li6  1  0.42155000  0.91076667  0.43655000  1.0
  Li+  Li7  1  0.42155000  0.91076667  0.93655000  1.0
  Li+  Li8  1  0.57845000  0.66076667  0.31345000  1.0
  Li+  Li9  1  0.57845000  0.66076667  0.81345000  1.0
  Li+  Li10  1  0.07845000  0.66076667  0.31345000  1.0
  Li+  Li11  1  0.07845000  0.66076667  0.81345000  1.0
  Li+  Li12  1  0.57845000  0.16076667  0.31345000  1.0
  Li+  Li13  1  0.57845000  0.16076667  0.81345000  1.0
  Li+  Li14  1  0.07845000  0.16076667  0.31345000  1.0
  Li+  Li15  1  0.07845000  0.16076667  0.81345000  1.0
  Li+  Li16  1  0.57845000  0.42256667  0.06345000  1.0
  Li+  Li17  1  0.57845000  0.42256667  0.56345000  1.0
  Li+  Li18  1  0.07845000  0.42256667  0.06345000  1.0
  Li+  Li19  1  0.07845000  0.42256667  0.56345000  1.0
  Li+  Li20  1  0.57845000  0.92256667  0.06345000  1.0
  Li+  Li21  1  0.57845000  0.92256667  0.56345000  1.0
  Li+  Li22  1  0.07845000  0.92256667  0.06345000  1.0
  Li+  Li23  1  0.07845000  0.92256667  0.56345000  1.0
  Li+  Li24  1  0.92155000  0.17256667  0.18655000  1.0
  Li+  Li25  1  0.92155000  0.17256667  0.68655000  1.0
  Li+  Li26  1  0.42155000  0.17256667  0.18655000  1.0
  Li+  Li27  1  0.42155000  0.17256667  0.68655000  1.0
  Li+  Li28  1  0.92155000  0.67256667  0.18655000  1.0
  Li+  Li29  1  0.92155000  0.67256667  0.68655000  1.0
  Li+  Li30  1  0.42155000  0.67256667  0.18655000  1.0
  Li+  Li31  1  0.42155000  0.67256667  0.68655000  1.0
  Ga3+  Ga32  1  0.64780000  0.57781667  0.19990000  1.0
  Ga3+  Ga33  1  0.64780000  0.57781667  0.69990000  1.0
  Ga3+  Ga34  1  0.14780000  0.57781667  0.19990000  1.0
  Ga3+  Ga35  1  0.14780000  0.57781667  0.69990000  1.0
  Ga3+  Ga36  1  0.64780000  0.07781667  0.19990000  1.0
  Ga3+  Ga37  1  0.64780000  0.07781667  0.69990000  1.0
  Ga3+  Ga38  1  0.14780000  0.07781667  0.19990000  1.0
  Ga3+  Ga39  1  0.14780000  0.07781667  0.69990000  1.0
  Ga3+  Ga40  1  0.85220000  0.32781667  0.05010000  1.0
  Ga3+  Ga41  1  0.85220000  0.32781667  0.55010000  1.0
  Ga3+  Ga42  1  0.35220000  0.32781667  0.05010000  1.0
  Ga3+  Ga43  1  0.35220000  0.32781667  0.55010000  1.0
  Ga3+  Ga44  1  0.85220000  0.82781667  0.05010000  1.0
  Ga3+  Ga45  1  0.85220000  0.82781667  0.55010000  1.0
  Ga3+  Ga46  1  0.35220000  0.82781667  0.05010000  1.0
  Ga3+  Ga47  1  0.35220000  0.82781667  0.55010000  1.0
  Ga3+  Ga48  1  0.85220000  0.25551667  0.30010000  1.0
  Ga3+  Ga49  1  0.85220000  0.25551667  0.80010000  1.0
  Ga3+  Ga50  1  0.35220000  0.25551667  0.30010000  1.0
  Ga3+  Ga51  1  0.35220000  0.25551667  0.80010000  1.0
  Ga3+  Ga52  1  0.85220000  0.75551667  0.30010000  1.0
  Ga3+  Ga53  1  0.85220000  0.75551667  0.80010000  1.0
  Ga3+  Ga54  1  0.35220000  0.75551667  0.30010000  1.0
  Ga3+  Ga55  1  0.35220000  0.75551667  0.80010000  1.0
  Ga3+  Ga56  1  0.64780000  0.50551667  0.44990000  1.0
  Ga3+  Ga57  1  0.64780000  0.50551667  0.94990000  1.0
  Ga3+  Ga58  1  0.14780000  0.50551667  0.44990000  1.0
  Ga3+  Ga59  1  0.14780000  0.50551667  0.94990000  1.0
  Ga3+  Ga60  1  0.64780000  0.00551667  0.44990000  1.0
  Ga3+  Ga61  1  0.64780000  0.00551667  0.94990000  1.0
  Ga3+  Ga62  1  0.14780000  0.00551667  0.44990000  1.0
  Ga3+  Ga63  1  0.14780000  0.00551667  0.94990000  1.0
  Br-  Br64  1  0.65475000  0.50496667  0.27565000  1.0
  Br-  Br65  1  0.65475000  0.50496667  0.77565000  1.0
  Br-  Br66  1  0.15475000  0.50496667  0.27565000  1.0
  Br-  Br67  1  0.15475000  0.50496667  0.77565000  1.0
  Br-  Br68  1  0.65475000  0.00496667  0.27565000  1.0
  Br-  Br69  1  0.65475000  0.00496667  0.77565000  1.0
  Br-  Br70  1  0.15475000  0.00496667  0.27565000  1.0
  Br-  Br71  1  0.15475000  0.00496667  0.77565000  1.0
  Br-  Br72  1  0.84525000  0.25496667  0.47435000  1.0
  Br-  Br73  1  0.84525000  0.25496667  0.97435000  1.0
  Br-  Br74  1  0.34525000  0.25496667  0.47435000  1.0
  Br-  Br75  1  0.34525000  0.25496667  0.97435000  1.0
  Br-  Br76  1  0.84525000  0.75496667  0.47435000  1.0
  Br-  Br77  1  0.84525000  0.75496667  0.97435000  1.0
  Br-  Br78  1  0.34525000  0.75496667  0.47435000  1.0
  Br-  Br79  1  0.34525000  0.75496667  0.97435000  1.0
  Br-  Br80  1  0.84525000  0.32836667  0.22435000  1.0
  Br-  Br81  1  0.84525000  0.32836667  0.72435000  1.0
  Br-  Br82  1  0.34525000  0.32836667  0.22435000  1.0
  Br-  Br83  1  0.34525000  0.32836667  0.72435000  1.0
  Br-  Br84  1  0.84525000  0.82836667  0.22435000  1.0
  Br-  Br85  1  0.84525000  0.82836667  0.72435000  1.0
  Br-  Br86  1  0.34525000  0.82836667  0.22435000  1.0
  Br-  Br87  1  0.34525000  0.82836667  0.72435000  1.0
  Br-  Br88  1  0.65475000  0.57836667  0.02565000  1.0
  Br-  Br89  1  0.65475000  0.57836667  0.52565000  1.0
  Br-  Br90  1  0.15475000  0.57836667  0.02565000  1.0
  Br-  Br91  1  0.15475000  0.57836667  0.52565000  1.0
  Br-  Br92  1  0.65475000  0.07836667  0.02565000  1.0
  Br-  Br93  1  0.65475000  0.07836667  0.52565000  1.0
  Br-  Br94  1  0.15475000  0.07836667  0.02565000  1.0
  Br-  Br95  1  0.15475000  0.07836667  0.52565000  1.0
  Br-  Br96  1  0.59580000  0.23676667  0.21530000  1.0
  Br-  Br97  1  0.59580000  0.23676667  0.71530000  1.0
  Br-  Br98  1  0.09580000  0.23676667  0.21530000  1.0
  Br-  Br99  1  0.09580000  0.23676667  0.71530000  1.0
  Br-  Br100  1  0.59580000  0.73676667  0.21530000  1.0
  Br-  Br101  1  0.59580000  0.73676667  0.71530000  1.0
  Br-  Br102  1  0.09580000  0.73676667  0.21530000  1.0
  Br-  Br103  1  0.09580000  0.73676667  0.71530000  1.0
  Br-  Br104  1  0.90420000  0.48676667  0.03470000  1.0
  Br-  Br105  1  0.90420000  0.48676667  0.53470000  1.0
  Br-  Br106  1  0.40420000  0.48676667  0.03470000  1.0
  Br-  Br107  1  0.40420000  0.48676667  0.53470000  1.0
  Br-  Br108  1  0.90420000  0.98676667  0.03470000  1.0
  Br-  Br109  1  0.90420000  0.98676667  0.53470000  1.0
  Br-  Br110  1  0.40420000  0.98676667  0.03470000  1.0
  Br-  Br111  1  0.40420000  0.98676667  0.53470000  1.0
  Br-  Br112  1  0.90420000  0.59656667  0.28470000  1.0
  Br-  Br113  1  0.90420000  0.59656667  0.78470000  1.0
  Br-  Br114  1  0.40420000  0.59656667  0.28470000  1.0
  Br-  Br115  1  0.40420000  0.59656667  0.78470000  1.0
  Br-  Br116  1  0.90420000  0.09656667  0.28470000  1.0
  Br-  Br117  1  0.90420000  0.09656667  0.78470000  1.0
  Br-  Br118  1  0.40420000  0.09656667  0.28470000  1.0
  Br-  Br119  1  0.40420000  0.09656667  0.78470000  1.0
  Br-  Br120  1  0.59580000  0.34656667  0.46530000  1.0
  Br-  Br121  1  0.59580000  0.34656667  0.96530000  1.0
  Br-  Br122  1  0.09580000  0.34656667  0.46530000  1.0
  Br-  Br123  1  0.09580000  0.34656667  0.96530000  1.0
  Br-  Br124  1  0.59580000  0.84656667  0.46530000  1.0
  Br-  Br125  1  0.59580000  0.84656667  0.96530000  1.0
  Br-  Br126  1  0.09580000  0.84656667  0.46530000  1.0
  Br-  Br127  1  0.09580000  0.84656667  0.96530000  1.0
  Br-  Br128  1  0.53245000  0.50541667  0.15710000  1.0
  Br-  Br129  1  0.53245000  0.50541667  0.65710000  1.0
  Br-  Br130  1  0.03245000  0.50541667  0.15710000  1.0
  Br-  Br131  1  0.03245000  0.50541667  0.65710000  1.0
  Br-  Br132  1  0.53245000  0.00541667  0.15710000  1.0
  Br-  Br133  1  0.53245000  0.00541667  0.65710000  1.0
  Br-  Br134  1  0.03245000  0.00541667  0.15710000  1.0
  Br-  Br135  1  0.03245000  0.00541667  0.65710000  1.0
  Br-  Br136  1  0.96755000  0.25541667  0.09290000  1.0
  Br-  Br137  1  0.96755000  0.25541667  0.59290000  1.0
  Br-  Br138  1  0.46755000  0.25541667  0.09290000  1.0
  Br-  Br139  1  0.46755000  0.25541667  0.59290000  1.0
  Br-  Br140  1  0.96755000  0.75541667  0.09290000  1.0
  Br-  Br141  1  0.96755000  0.75541667  0.59290000  1.0
  Br-  Br142  1  0.46755000  0.75541667  0.09290000  1.0
  Br-  Br143  1  0.46755000  0.75541667  0.59290000  1.0
  Br-  Br144  1  0.96755000  0.32791667  0.34290000  1.0
  Br-  Br145  1  0.96755000  0.32791667  0.84290000  1.0
  Br-  Br146  1  0.46755000  0.32791667  0.34290000  1.0
  Br-  Br147  1  0.46755000  0.32791667  0.84290000  1.0
  Br-  Br148  1  0.96755000  0.82791667  0.34290000  1.0
  Br-  Br149  1  0.96755000  0.82791667  0.84290000  1.0
  Br-  Br150  1  0.46755000  0.82791667  0.34290000  1.0
  Br-  Br151  1  0.46755000  0.82791667  0.84290000  1.0
  Br-  Br152  1  0.53245000  0.57791667  0.40710000  1.0
  Br-  Br153  1  0.53245000  0.57791667  0.90710000  1.0
  Br-  Br154  1  0.03245000  0.57791667  0.40710000  1.0
  Br-  Br155  1  0.03245000  0.57791667  0.90710000  1.0
  Br-  Br156  1  0.53245000  0.07791667  0.40710000  1.0
  Br-  Br157  1  0.53245000  0.07791667  0.90710000  1.0
  Br-  Br158  1  0.03245000  0.07791667  0.40710000  1.0
  Br-  Br159  1  0.03245000  0.07791667  0.90710000  1.0
  Br-  Br160  1  0.78195000  0.57176667  0.15365000  1.0
  Br-  Br161  1  0.78195000  0.57176667  0.65365000  1.0
  Br-  Br162  1  0.28195000  0.57176667  0.15365000  1.0
  Br-  Br163  1  0.28195000  0.57176667  0.65365000  1.0
  Br-  Br164  1  0.78195000  0.07176667  0.15365000  1.0
  Br-  Br165  1  0.78195000  0.07176667  0.65365000  1.0
  Br-  Br166  1  0.28195000  0.07176667  0.15365000  1.0
  Br-  Br167  1  0.28195000  0.07176667  0.65365000  1.0
  Br-  Br168  1  0.71805000  0.32176667  0.09635000  1.0
  Br-  Br169  1  0.71805000  0.32176667  0.59635000  1.0
  Br-  Br170  1  0.21805000  0.32176667  0.09635000  1.0
  Br-  Br171  1  0.21805000  0.32176667  0.59635000  1.0
  Br-  Br172  1  0.71805000  0.82176667  0.09635000  1.0
  Br-  Br173  1  0.71805000  0.82176667  0.59635000  1.0
  Br-  Br174  1  0.21805000  0.82176667  0.09635000  1.0
  Br-  Br175  1  0.21805000  0.82176667  0.59635000  1.0
  Br-  Br176  1  0.71805000  0.26156667  0.34635000  1.0
  Br-  Br177  1  0.71805000  0.26156667  0.84635000  1.0
  Br-  Br178  1  0.21805000  0.26156667  0.34635000  1.0
  Br-  Br179  1  0.21805000  0.26156667  0.84635000  1.0
  Br-  Br180  1  0.71805000  0.76156667  0.34635000  1.0
  Br-  Br181  1  0.71805000  0.76156667  0.84635000  1.0
  Br-  Br182  1  0.21805000  0.76156667  0.34635000  1.0
  Br-  Br183  1  0.21805000  0.76156667  0.84635000  1.0
  Br-  Br184  1  0.78195000  0.51156667  0.40365000  1.0
  Br-  Br185  1  0.78195000  0.51156667  0.90365000  1.0
  Br-  Br186  1  0.28195000  0.51156667  0.40365000  1.0
  Br-  Br187  1  0.28195000  0.51156667  0.90365000  1.0
  Br-  Br188  1  0.78195000  0.01156667  0.40365000  1.0
  Br-  Br189  1  0.78195000  0.01156667  0.90365000  1.0
  Br-  Br190  1  0.28195000  0.01156667  0.40365000  1.0
  Br-  Br191  1  0.28195000  0.01156667  0.90365000  1.0
