# generated using pymatgen
data_LiGaBr4
_symmetry_space_group_name_H-M   'P 1'
_cell_length_a   13.70800000
_cell_length_b   14.83200000
_cell_length_c   27.39200000
_cell_angle_alpha   93.14000000
_cell_angle_beta   90.00000000
_cell_angle_gamma   90.00000000
_symmetry_Int_Tables_number   1
_chemical_formula_structural   LiGaBr4
_chemical_formula_sum   'Li32 Ga32 Br128'
_cell_volume   5560.89951556
_cell_formula_units_Z   32
loop_
 _symmetry_equiv_pos_site_id
 _symmetry_equiv_pos_as_xyz
  1  'x, y, z'
loop_
 _atom_type_symbol
 _atom_type_oxidation_number
  Li+  1.0
  Ga3+  3.0
  Br-  -1.0
loop_
 _atom_site_type_symbol
 _atom_site_label
 _atom_site_symmetry_multiplicity
 _atom_site_fract_x
 _atom_site_fract_y
 _atom_site_fract_z
 _atom_site_occupancy
  Li+  Li1  1  0.25590000  0.07845000  0.43655000  1.0
  Li+  Li1  1  0.25590000  0.07845000  0.93655000  1.0
  Li+  Li1  1  0.25590000  0.57845000  0.43655000  1.0
  Li+  Li1  1  0.25590000  0.57845000  0.93655000  1.0
  Li+  Li1  1  0.75590000  0.07845000  0.43655000  1.0
  Li+  Li1  1  0.75590000  0.07845000  0.93655000  1.0
  Li+  Li1  1  0.75590000  0.57845000  0.43655000  1.0
  Li+  Li1  1  0.75590000  0.57845000  0.93655000  1.0
  Li+  Li1  1  0.00590000  0.42155000  0.31345000  1.0
  Li+  Li1  1  0.00590000  0.42155000  0.81345000  1.0
  Li+  Li1  1  0.00590000  0.92155000  0.31345000  1.0
  Li+  Li1  1  0.00590000  0.92155000  0.81345000  1.0
  Li+  Li1  1  0.50590000  0.42155000  0.31345000  1.0
  Li+  Li1  1  0.50590000  0.42155000  0.81345000  1.0
  Li+  Li1  1  0.50590000  0.92155000  0.31345000  1.0
  Li+  Li1  1  0.50590000  0.92155000  0.81345000  1.0
  Li+  Li1  1  0.24410000  0.42155000  0.06345000  1.0
  Li+  Li1  1  0.24410000  0.42155000  0.56345000  1.0
  Li+  Li1  1  0.24410000  0.92155000  0.06345000  1.0
  Li+  Li1  1  0.24410000  0.92155000  0.56345000  1.0
  Li+  Li1  1  0.74410000  0.42155000  0.06345000  1.0
  Li+  Li1  1  0.74410000  0.42155000  0.56345000  1.0
  Li+  Li1  1  0.74410000  0.92155000  0.06345000  1.0
  Li+  Li1  1  0.74410000  0.92155000  0.56345000  1.0
  Li+  Li1  1  0.49410000  0.07845000  0.18655000  1.0
  Li+  Li1  1  0.49410000  0.07845000  0.68655000  1.0
  Li+  Li1  1  0.49410000  0.57845000  0.18655000  1.0
  Li+  Li1  1  0.49410000  0.57845000  0.68655000  1.0
  Li+  Li1  1  0.99410000  0.07845000  0.18655000  1.0
  Li+  Li1  1  0.99410000  0.07845000  0.68655000  1.0
  Li+  Li1  1  0.99410000  0.57845000  0.18655000  1.0
  Li+  Li1  1  0.99410000  0.57845000  0.68655000  1.0
  Ga3+  Ga1  1  0.08885000  0.35220000  0.19990000  1.0
  Ga3+  Ga1  1  0.08885000  0.35220000  0.69990000  1.0
  Ga3+  Ga1  1  0.08885000  0.85220000  0.19990000  1.0
  Ga3+  Ga1  1  0.08885000  0.85220000  0.69990000  1.0
  Ga3+  Ga1  1  0.58885000  0.35220000  0.19990000  1.0
  Ga3+  Ga1  1  0.58885000  0.35220000  0.69990000  1.0
  Ga3+  Ga1  1  0.58885000  0.85220000  0.19990000  1.0
  Ga3+  Ga1  1  0.58885000  0.85220000  0.69990000  1.0
  Ga3+  Ga1  1  0.33885000  0.14780000  0.05010000  1.0
  Ga3+  Ga1  1  0.33885000  0.14780000  0.55010000  1.0
  Ga3+  Ga1  1  0.33885000  0.64780000  0.05010000  1.0
  Ga3+  Ga1  1  0.33885000  0.64780000  0.55010000  1.0
  Ga3+  Ga1  1  0.83885000  0.14780000  0.05010000  1.0
  Ga3+  Ga1  1  0.83885000  0.14780000  0.55010000  1.0
  Ga3+  Ga1  1  0.83885000  0.64780000  0.05010000  1.0
  Ga3+  Ga1  1  0.83885000  0.64780000  0.55010000  1.0
  Ga3+  Ga1  1  0.41115000  0.14780000  0.30010000  1.0
  Ga3+  Ga1  1  0.41115000  0.14780000  0.80010000  1.0
  Ga3+  Ga1  1  0.41115000  0.64780000  0.30010000  1.0
  Ga3+  Ga1  1  0.41115000  0.64780000  0.80010000  1.0
  Ga3+  Ga1  1  0.91115000  0.14780000  0.30010000  1.0
  Ga3+  Ga1  1  0.91115000  0.14780000  0.80010000  1.0
  Ga3+  Ga1  1  0.91115000  0.64780000  0.30010000  1.0
  Ga3+  Ga1  1  0.91115000  0.64780000  0.80010000  1.0
  Ga3+  Ga1  1  0.16115000  0.35220000  0.44990000  1.0
  Ga3+  Ga1  1  0.16115000  0.35220000  0.94990000  1.0
  Ga3+  Ga1  1  0.16115000  0.85220000  0.44990000  1.0
  Ga3+  Ga1  1  0.16115000  0.85220000  0.94990000  1.0
  Ga3+  Ga1  1  0.66115000  0.35220000  0.44990000  1.0
  Ga3+  Ga1  1  0.66115000  0.35220000  0.94990000  1.0
  Ga3+  Ga1  1  0.66115000  0.85220000  0.44990000  1.0
  Ga3+  Ga1  1  0.66115000  0.85220000  0.94990000  1.0
  Br-  Br1  1  0.16170000  0.34525000  0.27565000  1.0
  Br-  Br1  1  0.16170000  0.34525000  0.77565000  1.0
  Br-  Br1  1  0.16170000  0.84525000  0.27565000  1.0
  Br-  Br1  1  0.16170000  0.84525000  0.77565000  1.0
  Br-  Br1  1  0.66170000  0.34525000  0.27565000  1.0
  Br-  Br1  1  0.66170000  0.34525000  0.77565000  1.0
  Br-  Br1  1  0.66170000  0.84525000  0.27565000  1.0
  Br-  Br1  1  0.66170000  0.84525000  0.77565000  1.0
  Br-  Br1  1  0.41170000  0.15475000  0.47435000  1.0
  Br-  Br1  1  0.41170000  0.15475000  0.97435000  1.0
  Br-  Br1  1  0.41170000  0.65475000  0.47435000  1.0
  Br-  Br1  1  0.41170000  0.65475000  0.97435000  1.0
  Br-  Br1  1  0.91170000  0.15475000  0.47435000  1.0
  Br-  Br1  1  0.91170000  0.15475000  0.97435000  1.0
  Br-  Br1  1  0.91170000  0.65475000  0.47435000  1.0
  Br-  Br1  1  0.91170000  0.65475000  0.97435000  1.0
  Br-  Br1  1  0.33830000  0.15475000  0.22435000  1.0
  Br-  Br1  1  0.33830000  0.15475000  0.72435000  1.0
  Br-  Br1  1  0.33830000  0.65475000  0.22435000  1.0
  Br-  Br1  1  0.33830000  0.65475000  0.72435000  1.0
  Br-  Br1  1  0.83830000  0.15475000  0.22435000  1.0
  Br-  Br1  1  0.83830000  0.15475000  0.72435000  1.0
  Br-  Br1  1  0.83830000  0.65475000  0.22435000  1.0
  Br-  Br1  1  0.83830000  0.65475000  0.72435000  1.0
  Br-  Br1  1  0.08830000  0.34525000  0.02565000  1.0
  Br-  Br1  1  0.08830000  0.34525000  0.52565000  1.0
  Br-  Br1  1  0.08830000  0.84525000  0.02565000  1.0
  Br-  Br1  1  0.08830000  0.84525000  0.52565000  1.0
  Br-  Br1  1  0.58830000  0.34525000  0.02565000  1.0
  Br-  Br1  1  0.58830000  0.34525000  0.52565000  1.0
  Br-  Br1  1  0.58830000  0.84525000  0.02565000  1.0
  Br-  Br1  1  0.58830000  0.84525000  0.52565000  1.0
  Br-  Br2  1  0.42990000  0.40420000  0.21530000  1.0
  Br-  Br2  1  0.42990000  0.40420000  0.71530000  1.0
  Br-  Br2  1  0.42990000  0.90420000  0.21530000  1.0
  Br-  Br2  1  0.42990000  0.90420000  0.71530000  1.0
  Br-  Br2  1  0.92990000  0.40420000  0.21530000  1.0
  Br-  Br2  1  0.92990000  0.40420000  0.71530000  1.0
  Br-  Br2  1  0.92990000  0.90420000  0.21530000  1.0
  Br-  Br2  1  0.92990000  0.90420000  0.71530000  1.0
  Br-  Br2  1  0.17990000  0.09580000  0.03470000  1.0
  Br-  Br2  1  0.17990000  0.09580000  0.53470000  1.0
  Br-  Br2  1  0.17990000  0.59580000  0.03470000  1.0
  Br-  Br2  1  0.17990000  0.59580000  0.53470000  1.0
  Br-  Br2  1  0.67990000  0.09580000  0.03470000  1.0
  Br-  Br2  1  0.67990000  0.09580000  0.53470000  1.0
  Br-  Br2  1  0.67990000  0.59580000  0.03470000  1.0
  Br-  Br2  1  0.67990000  0.59580000  0.53470000  1.0
  Br-  Br2  1  0.07010000  0.09580000  0.28470000  1.0
  Br-  Br2  1  0.07010000  0.09580000  0.78470000  1.0
  Br-  Br2  1  0.07010000  0.59580000  0.28470000  1.0
  Br-  Br2  1  0.07010000  0.59580000  0.78470000  1.0
  Br-  Br2  1  0.57010000  0.09580000  0.28470000  1.0
  Br-  Br2  1  0.57010000  0.09580000  0.78470000  1.0
  Br-  Br2  1  0.57010000  0.59580000  0.28470000  1.0
  Br-  Br2  1  0.57010000  0.59580000  0.78470000  1.0
  Br-  Br2  1  0.32010000  0.40420000  0.46530000  1.0
  Br-  Br2  1  0.32010000  0.40420000  0.96530000  1.0
  Br-  Br2  1  0.32010000  0.90420000  0.46530000  1.0
  Br-  Br2  1  0.32010000  0.90420000  0.96530000  1.0
  Br-  Br2  1  0.82010000  0.40420000  0.46530000  1.0
  Br-  Br2  1  0.82010000  0.40420000  0.96530000  1.0
  Br-  Br2  1  0.82010000  0.90420000  0.46530000  1.0
  Br-  Br2  1  0.82010000  0.90420000  0.96530000  1.0
  Br-  Br3  1  0.16125000  0.46755000  0.15710000  1.0
  Br-  Br3  1  0.16125000  0.46755000  0.65710000  1.0
  Br-  Br3  1  0.16125000  0.96755000  0.15710000  1.0
  Br-  Br3  1  0.16125000  0.96755000  0.65710000  1.0
  Br-  Br3  1  0.66125000  0.46755000  0.15710000  1.0
  Br-  Br3  1  0.66125000  0.46755000  0.65710000  1.0
  Br-  Br3  1  0.66125000  0.96755000  0.15710000  1.0
  Br-  Br3  1  0.66125000  0.96755000  0.65710000  1.0
  Br-  Br3  1  0.41125000  0.03245000  0.09290000  1.0
  Br-  Br3  1  0.41125000  0.03245000  0.59290000  1.0
  Br-  Br3  1  0.41125000  0.53245000  0.09290000  1.0
  Br-  Br3  1  0.41125000  0.53245000  0.59290000  1.0
  Br-  Br3  1  0.91125000  0.03245000  0.09290000  1.0
  Br-  Br3  1  0.91125000  0.03245000  0.59290000  1.0
  Br-  Br3  1  0.91125000  0.53245000  0.09290000  1.0
  Br-  Br3  1  0.91125000  0.53245000  0.59290000  1.0
  Br-  Br3  1  0.33875000  0.03245000  0.34290000  1.0
  Br-  Br3  1  0.33875000  0.03245000  0.84290000  1.0
  Br-  Br3  1  0.33875000  0.53245000  0.34290000  1.0
  Br-  Br3  1  0.33875000  0.53245000  0.84290000  1.0
  Br-  Br3  1  0.83875000  0.03245000  0.34290000  1.0
  Br-  Br3  1  0.83875000  0.03245000  0.84290000  1.0
  Br-  Br3  1  0.83875000  0.53245000  0.34290000  1.0
  Br-  Br3  1  0.83875000  0.53245000  0.84290000  1.0
  Br-  Br3  1  0.08875000  0.46755000  0.40710000  1.0
  Br-  Br3  1  0.08875000  0.46755000  0.90710000  1.0
  Br-  Br3  1  0.08875000  0.96755000  0.40710000  1.0
  Br-  Br3  1  0.08875000  0.96755000  0.90710000  1.0
  Br-  Br3  1  0.58875000  0.46755000  0.40710000  1.0
  Br-  Br3  1  0.58875000  0.46755000  0.90710000  1.0
  Br-  Br3  1  0.58875000  0.96755000  0.40710000  1.0
  Br-  Br3  1  0.58875000  0.96755000  0.90710000  1.0
  Br-  Br4  1  0.09490000  0.21805000  0.15365000  1.0
  Br-  Br4  1  0.09490000  0.21805000  0.65365000  1.0
  Br-  Br4  1  0.09490000  0.71805000  0.15365000  1.0
  Br-  Br4  1  0.09490000  0.71805000  0.65365000  1.0
  Br-  Br4  1  0.59490000  0.21805000  0.15365000  1.0
  Br-  Br4  1  0.59490000  0.21805000  0.65365000  1.0
  Br-  Br4  1  0.59490000  0.71805000  0.15365000  1.0
  Br-  Br4  1  0.59490000  0.71805000  0.65365000  1.0
  Br-  Br4  1  0.34490000  0.28195000  0.09635000  1.0
  Br-  Br4  1  0.34490000  0.28195000  0.59635000  1.0
  Br-  Br4  1  0.34490000  0.78195000  0.09635000  1.0
  Br-  Br4  1  0.34490000  0.78195000  0.59635000  1.0
  Br-  Br4  1  0.84490000  0.28195000  0.09635000  1.0
  Br-  Br4  1  0.84490000  0.28195000  0.59635000  1.0
  Br-  Br4  1  0.84490000  0.78195000  0.09635000  1.0
  Br-  Br4  1  0.84490000  0.78195000  0.59635000  1.0
  Br-  Br4  1  0.40510000  0.28195000  0.34635000  1.0
  Br-  Br4  1  0.40510000  0.28195000  0.84635000  1.0
  Br-  Br4  1  0.40510000  0.78195000  0.34635000  1.0
  Br-  Br4  1  0.40510000  0.78195000  0.84635000  1.0
  Br-  Br4  1  0.90510000  0.28195000  0.34635000  1.0
  Br-  Br4  1  0.90510000  0.28195000  0.84635000  1.0
  Br-  Br4  1  0.90510000  0.78195000  0.34635000  1.0
  Br-  Br4  1  0.90510000  0.78195000  0.84635000  1.0
  Br-  Br4  1  0.15510000  0.21805000  0.40365000  1.0
  Br-  Br4  1  0.15510000  0.21805000  0.90365000  1.0
  Br-  Br4  1  0.15510000  0.71805000  0.40365000  1.0
  Br-  Br4  1  0.15510000  0.71805000  0.90365000  1.0
  Br-  Br4  1  0.65510000  0.21805000  0.40365000  1.0
  Br-  Br4  1  0.65510000  0.21805000  0.90365000  1.0
  Br-  Br4  1  0.65510000  0.71805000  0.40365000  1.0
  Br-  Br4  1  0.65510000  0.71805000  0.90365000  1.0
