# generated using pymatgen
data_Li3YBr6
_symmetry_space_group_name_H-M   'P 1'
_cell_length_a   27.45400000
_cell_length_b   13.82936221
_cell_length_c   13.82936221
_cell_angle_alpha   119.96058661
_cell_angle_beta   80.25255666
_cell_angle_gamma   80.25255666
_symmetry_Int_Tables_number   1
_chemical_formula_structural   Li3YBr6
_chemical_formula_sum   'Li48 Y16 Br96'
_cell_volume   4280.57440130
_cell_formula_units_Z   16
loop_
 _symmetry_equiv_pos_site_id
 _symmetry_equiv_pos_as_xyz
  1  'x, y, z'
loop_
 _atom_type_symbol
 _atom_type_oxidation_number
  Li+  1.0
  Y3+  3.0
  Br-  -1.0
loop_
 _atom_site_type_symbol
 _atom_site_label
 _atom_site_symmetry_multiplicity
 _atom_site_fract_x
 _atom_site_fract_y
 _atom_site_fract_z
 _atom_site_occupancy
  Li+  Li0  1  0.21208991  0.85407621  0.27308994  1.0
  Li+  Li1  1  0.70816493  0.85038041  0.27899012  1.0
  Li+  Li2  1  0.46217624  0.85146053  0.77811462  1.0
  Li+  Li3  1  0.96175000  0.85000000  0.77500000  1.0
  Li+  Li4  1  0.03815943  0.14956593  0.22337779  1.0
  Li+  Li5  1  0.53825000  0.15000000  0.22500000  1.0
  Li+  Li6  1  0.24897423  0.14831184  0.59733019  1.0
  Li+  Li7  1  0.75000000  0.15358500  0.59641500  1.0
  Li+  Li8  1  0.25037066  0.65471574  0.09892829  1.0
  Li+  Li9  1  0.75000000  0.65358500  0.09641500  1.0
  Li+  Li10  1  0.00000000  0.65358500  0.59641500  1.0
  Li+  Li11  1  0.50000000  0.65358500  0.59641500  1.0
  Li+  Li12  1  0.00000000  0.15358500  0.59641500  1.0
  Li+  Li13  1  0.50000000  0.15358500  0.59641500  1.0
  Li+  Li14  1  0.00000000  0.65358500  0.09641500  1.0
  Li+  Li15  1  0.50194479  0.65504004  0.09659968  1.0
  Li+  Li16  1  0.00030345  0.15177743  0.09502287  1.0
  Li+  Li17  1  0.50335452  0.15338645  0.09531524  1.0
  Li+  Li18  1  0.25000000  0.84641500  0.90358500  1.0
  Li+  Li19  1  0.75000000  0.84641500  0.90358500  1.0
  Li+  Li20  1  0.00000000  0.84641500  0.40358500  1.0
  Li+  Li21  1  0.50000000  0.84641500  0.40358500  1.0
  Li+  Li22  1  0.00259731  0.34827713  0.90257731  1.0
  Li+  Li23  1  0.50000000  0.34641500  0.90358500  1.0
  Li+  Li24  1  0.12130874  0.89222475  0.35276368  1.0
  Li+  Li25  1  0.62500000  0.89400500  0.35599500  1.0
  Li+  Li26  1  0.12500000  0.39400500  0.35599500  1.0
  Li+  Li27  1  0.62500000  0.39400500  0.35599500  1.0
  Li+  Li28  1  0.12248137  0.88912563  0.85437945  1.0
  Li+  Li29  1  0.62500000  0.89400500  0.85599500  1.0
  Li+  Li30  1  0.12500000  0.39400500  0.85599500  1.0
  Li+  Li31  1  0.62421673  0.39413424  0.85230498  1.0
  Li+  Li32  1  0.37500000  0.89400500  0.35599500  1.0
  Li+  Li33  1  0.87500000  0.89400500  0.35599500  1.0
  Li+  Li34  1  0.37500000  0.89400500  0.85599500  1.0
  Li+  Li35  1  0.87500000  0.89400500  0.85599500  1.0
  Li+  Li36  1  0.12500000  0.60599500  0.64400500  1.0
  Li+  Li37  1  0.62530454  0.60669915  0.64188263  1.0
  Li+  Li38  1  0.12500000  0.10599500  0.64400500  1.0
  Li+  Li39  1  0.62500000  0.10599500  0.64400500  1.0
  Li+  Li40  1  0.12500000  0.60599500  0.14400500  1.0
  Li+  Li41  1  0.62124832  0.60507754  0.14365387  1.0
  Li+  Li42  1  0.12355680  0.10693621  0.14639248  1.0
  Li+  Li43  1  0.62500000  0.10599500  0.14400500  1.0
  Li+  Li44  1  0.37500000  0.10599500  0.64400500  1.0
  Li+  Li45  1  0.87500000  0.10599500  0.64400500  1.0
  Li+  Li46  1  0.37454028  0.60447586  0.14591599  1.0
  Li+  Li47  1  0.87500000  0.60599500  0.14400500  1.0
  Y3+  Y48  1  0.00000000  0.50000000  0.75000000  1.0
  Y3+  Y49  1  0.49377110  0.49937926  0.75135573  1.0
  Y3+  Y50  1  0.00000000  0.50000000  0.25000000  1.0
  Y3+  Y51  1  0.50000000  0.50000000  0.25000000  1.0
  Y3+  Y52  1  0.25200570  0.00459319  0.74838677  1.0
  Y3+  Y53  1  0.75000000  0.00000000  0.75000000  1.0
  Y3+  Y54  1  0.25000000  0.50000000  0.75000000  1.0
  Y3+  Y55  1  0.75000000  0.50000000  0.75000000  1.0
  Y3+  Y56  1  0.25000000  0.00000000  0.25000000  1.0
  Y3+  Y57  1  0.75000000  0.00000000  0.25000000  1.0
  Y3+  Y58  1  0.25356523  0.49728075  0.24954757  1.0
  Y3+  Y59  1  0.75000000  0.50000000  0.25000000  1.0
  Y3+  Y60  1  0.37500000  0.39400500  0.85599500  1.0
  Y3+  Y61  1  0.87500000  0.39400500  0.85599500  1.0
  Y3+  Y62  1  0.37218603  0.10863134  0.14465397  1.0
  Y3+  Y63  1  0.87500000  0.10599500  0.14400500  1.0
  Br-  Br64  1  0.06082250  0.62181000  0.37181000  1.0
  Br-  Br65  1  0.56082250  0.62181000  0.37181000  1.0
  Br-  Br66  1  0.06082250  0.12181000  0.37181000  1.0
  Br-  Br67  1  0.56082250  0.12181000  0.37181000  1.0
  Br-  Br68  1  0.06082250  0.62181000  0.87181000  1.0
  Br-  Br69  1  0.56082250  0.62181000  0.87181000  1.0
  Br-  Br70  1  0.06121929  0.12025386  0.87038999  1.0
  Br-  Br71  1  0.56082250  0.12181000  0.87181000  1.0
  Br-  Br72  1  0.31315956  0.62198413  0.37493456  1.0
  Br-  Br73  1  0.81082250  0.62181000  0.37181000  1.0
  Br-  Br74  1  0.31082250  0.12181000  0.37181000  1.0
  Br-  Br75  1  0.81082250  0.12181000  0.37181000  1.0
  Br-  Br76  1  0.30615857  0.61873622  0.87067024  1.0
  Br-  Br77  1  0.81039446  0.62213764  0.87372003  1.0
  Br-  Br78  1  0.30927398  0.11747248  0.87518280  1.0
  Br-  Br79  1  0.80996023  0.12267386  0.87125187  1.0
  Br-  Br80  1  0.18917750  0.87819000  0.62819000  1.0
  Br-  Br81  1  0.68907674  0.87834966  0.63072942  1.0
  Br-  Br82  1  0.18917750  0.37819000  0.62819000  1.0
  Br-  Br83  1  0.69085841  0.37311984  0.62767978  1.0
  Br-  Br84  1  0.18917750  0.87819000  0.12819000  1.0
  Br-  Br85  1  0.68917750  0.87819000  0.12819000  1.0
  Br-  Br86  1  0.18917750  0.37819000  0.12819000  1.0
  Br-  Br87  1  0.68567027  0.37958465  0.12663560  1.0
  Br-  Br88  1  0.43917750  0.87819000  0.62819000  1.0
  Br-  Br89  1  0.93917750  0.87819000  0.62819000  1.0
  Br-  Br90  1  0.43917750  0.37819000  0.62819000  1.0
  Br-  Br91  1  0.93917750  0.37819000  0.62819000  1.0
  Br-  Br92  1  0.44043638  0.88093356  0.12781289  1.0
  Br-  Br93  1  0.93917750  0.87819000  0.12819000  1.0
  Br-  Br94  1  0.43850659  0.37256857  0.12910033  1.0
  Br-  Br95  1  0.93917750  0.37819000  0.12819000  1.0
  Br-  Br96  1  0.19064250  0.54098500  0.46150500  1.0
  Br-  Br97  1  0.69064250  0.54098500  0.46150500  1.0
  Br-  Br98  1  0.19064250  0.04098500  0.46150500  1.0
  Br-  Br99  1  0.69064250  0.04098500  0.46150500  1.0
  Br-  Br100  1  0.19064250  0.54098500  0.96150500  1.0
  Br-  Br101  1  0.69064250  0.54098500  0.96150500  1.0
  Br-  Br102  1  0.19064250  0.04098500  0.96150500  1.0
  Br-  Br103  1  0.69064250  0.04098500  0.96150500  1.0
  Br-  Br104  1  0.44064250  0.54098500  0.46150500  1.0
  Br-  Br105  1  0.94064250  0.54098500  0.46150500  1.0
  Br-  Br106  1  0.44064250  0.04098500  0.46150500  1.0
  Br-  Br107  1  0.94064250  0.04098500  0.46150500  1.0
  Br-  Br108  1  0.44064250  0.54098500  0.96150500  1.0
  Br-  Br109  1  0.94227567  0.53890140  0.96085494  1.0
  Br-  Br110  1  0.44064250  0.04098500  0.96150500  1.0
  Br-  Br111  1  0.94064250  0.04098500  0.96150500  1.0
  Br-  Br112  1  0.05935750  0.78849500  0.70901500  1.0
  Br-  Br113  1  0.55935750  0.78849500  0.70901500  1.0
  Br-  Br114  1  0.05935750  0.28849500  0.70901500  1.0
  Br-  Br115  1  0.55935750  0.28849500  0.70901500  1.0
  Br-  Br116  1  0.05781719  0.78836268  0.20581160  1.0
  Br-  Br117  1  0.55935750  0.78849500  0.20901500  1.0
  Br-  Br118  1  0.05489616  0.29031690  0.21527254  1.0
  Br-  Br119  1  0.55781107  0.28543620  0.20785309  1.0
  Br-  Br120  1  0.30935750  0.78849500  0.70901500  1.0
  Br-  Br121  1  0.80935750  0.78849500  0.70901500  1.0
  Br-  Br122  1  0.30935750  0.28849500  0.70901500  1.0
  Br-  Br123  1  0.81063417  0.28352985  0.71454710  1.0
  Br-  Br124  1  0.30935750  0.78849500  0.20901500  1.0
  Br-  Br125  1  0.80935750  0.78849500  0.20901500  1.0
  Br-  Br126  1  0.30935750  0.28849500  0.20901500  1.0
  Br-  Br127  1  0.80935750  0.28849500  0.20901500  1.0
  Br-  Br128  1  0.19064250  0.71150500  0.29098500  1.0
  Br-  Br129  1  0.69064250  0.71150500  0.29098500  1.0
  Br-  Br130  1  0.19064250  0.21150500  0.29098500  1.0
  Br-  Br131  1  0.69064250  0.21150500  0.29098500  1.0
  Br-  Br132  1  0.19064250  0.71150500  0.79098500  1.0
  Br-  Br133  1  0.69064250  0.71150500  0.79098500  1.0
  Br-  Br134  1  0.19064250  0.21150500  0.79098500  1.0
  Br-  Br135  1  0.69064250  0.21150500  0.79098500  1.0
  Br-  Br136  1  0.44064250  0.71150500  0.29098500  1.0
  Br-  Br137  1  0.94064250  0.71150500  0.29098500  1.0
  Br-  Br138  1  0.44064250  0.21150500  0.29098500  1.0
  Br-  Br139  1  0.94064250  0.21150500  0.29098500  1.0
  Br-  Br140  1  0.44064250  0.71150500  0.79098500  1.0
  Br-  Br141  1  0.94064250  0.71150500  0.79098500  1.0
  Br-  Br142  1  0.44064250  0.21150500  0.79098500  1.0
  Br-  Br143  1  0.94064250  0.21150500  0.79098500  1.0
  Br-  Br144  1  0.05935750  0.95901500  0.53849500  1.0
  Br-  Br145  1  0.55935750  0.95901500  0.53849500  1.0
  Br-  Br146  1  0.05935750  0.45901500  0.53849500  1.0
  Br-  Br147  1  0.55935750  0.45901500  0.53849500  1.0
  Br-  Br148  1  0.05935750  0.95901500  0.03849500  1.0
  Br-  Br149  1  0.55935750  0.95901500  0.03849500  1.0
  Br-  Br150  1  0.05935750  0.45901500  0.03849500  1.0
  Br-  Br151  1  0.55935750  0.45901500  0.03849500  1.0
  Br-  Br152  1  0.30935750  0.95901500  0.53849500  1.0
  Br-  Br153  1  0.80935750  0.95901500  0.53849500  1.0
  Br-  Br154  1  0.30935750  0.45901500  0.53849500  1.0
  Br-  Br155  1  0.80779454  0.45642164  0.53284384  1.0
  Br-  Br156  1  0.30935750  0.95901500  0.03849500  1.0
  Br-  Br157  1  0.80935750  0.95901500  0.03849500  1.0
  Br-  Br158  1  0.30747956  0.46170224  0.03919218  1.0
  Br-  Br159  1  0.80785701  0.45809871  0.03662276  1.0
