# generated using pymatgen
data_Li3YBr6
_symmetry_space_group_name_H-M   'P 1'
_cell_length_a   27.45400000
_cell_length_b   13.82936221
_cell_length_c   13.82936221
_cell_angle_alpha   119.96058661
_cell_angle_beta   99.74744334
_cell_angle_gamma   99.74744334
_symmetry_Int_Tables_number   1
_chemical_formula_structural   Li3YBr6
_chemical_formula_sum   'Li48 Y16 Br96'
_cell_volume   4280.57440130
_cell_formula_units_Z   16
loop_
 _symmetry_equiv_pos_site_id
 _symmetry_equiv_pos_as_xyz
  1  'x, y, z'
loop_
 _atom_type_symbol
 _atom_type_oxidation_number
  Li+  1.0
  Y3+  3.0
  Br-  -1.0
loop_
 _atom_site_type_symbol
 _atom_site_label
 _atom_site_symmetry_multiplicity
 _atom_site_fract_x
 _atom_site_fract_y
 _atom_site_fract_z
 _atom_site_occupancy
  Li+  Li0  1  0.21175000  0.47500000  0.15000000  1.0
  Li+  Li0  1  0.71175000  0.47500000  0.15000000  1.0
  Li+  Li1  1  0.46175000  0.97500000  0.15000000  1.0
  Li+  Li1  1  0.96175000  0.97500000  0.15000000  1.0
  Li+  Li2  1  0.03825000  0.52500000  0.85000000  1.0
  Li+  Li2  1  0.53825000  0.52500000  0.85000000  1.0
  Li+  Li3  1  0.25000000  0.15358500  0.84641500  1.0
  Li+  Li3  1  0.75000000  0.15358500  0.84641500  1.0
  Li+  Li4  1  0.25000000  0.65358500  0.34641500  1.0
  Li+  Li4  1  0.75000000  0.65358500  0.34641500  1.0
  Li+  Li5  1  0.00000000  0.15358500  0.34641500  1.0
  Li+  Li5  1  0.50000000  0.15358500  0.34641500  1.0
  Li+  Li6  1  0.00000000  0.15358500  0.84641500  1.0
  Li+  Li6  1  0.50000000  0.15358500  0.84641500  1.0
  Li+  Li7  1  0.00000000  0.65358500  0.34641500  1.0
  Li+  Li7  1  0.50000000  0.65358500  0.34641500  1.0
  Li+  Li8  1  0.00000000  0.65358500  0.84641500  1.0
  Li+  Li8  1  0.50000000  0.65358500  0.84641500  1.0
  Li+  Li9  1  0.25000000  0.84641500  0.15358500  1.0
  Li+  Li9  1  0.75000000  0.84641500  0.15358500  1.0
  Li+  Li10  1  0.00000000  0.34641500  0.15358500  1.0
  Li+  Li10  1  0.50000000  0.34641500  0.15358500  1.0
  Li+  Li11  1  0.00000000  0.84641500  0.65358500  1.0
  Li+  Li11  1  0.50000000  0.84641500  0.65358500  1.0
  Li+  Li12  1  0.12500000  0.39400500  0.10599500  1.0
  Li+  Li12  1  0.62500000  0.39400500  0.10599500  1.0
  Li+  Li13  1  0.12500000  0.39400500  0.60599500  1.0
  Li+  Li13  1  0.62500000  0.39400500  0.60599500  1.0
  Li+  Li14  1  0.12500000  0.89400500  0.10599500  1.0
  Li+  Li14  1  0.62500000  0.89400500  0.10599500  1.0
  Li+  Li15  1  0.12500000  0.89400500  0.60599500  1.0
  Li+  Li15  1  0.62500000  0.89400500  0.60599500  1.0
  Li+  Li16  1  0.37500000  0.39400500  0.10599500  1.0
  Li+  Li16  1  0.87500000  0.39400500  0.10599500  1.0
  Li+  Li17  1  0.37500000  0.89400500  0.10599500  1.0
  Li+  Li17  1  0.87500000  0.89400500  0.10599500  1.0
  Li+  Li18  1  0.12500000  0.10599500  0.39400500  1.0
  Li+  Li18  1  0.62500000  0.10599500  0.39400500  1.0
  Li+  Li19  1  0.12500000  0.10599500  0.89400500  1.0
  Li+  Li19  1  0.62500000  0.10599500  0.89400500  1.0
  Li+  Li20  1  0.12500000  0.60599500  0.39400500  1.0
  Li+  Li20  1  0.62500000  0.60599500  0.39400500  1.0
  Li+  Li21  1  0.12500000  0.60599500  0.89400500  1.0
  Li+  Li21  1  0.62500000  0.60599500  0.89400500  1.0
  Li+  Li22  1  0.37500000  0.10599500  0.89400500  1.0
  Li+  Li22  1  0.87500000  0.10599500  0.89400500  1.0
  Li+  Li23  1  0.37500000  0.60599500  0.39400500  1.0
  Li+  Li23  1  0.87500000  0.60599500  0.39400500  1.0
  Y3+  Y24  1  0.00000000  0.00000000  0.50000000  1.0
  Y3+  Y24  1  0.50000000  0.00000000  0.50000000  1.0
  Y3+  Y25  1  0.00000000  0.50000000  0.50000000  1.0
  Y3+  Y25  1  0.50000000  0.50000000  0.50000000  1.0
  Y3+  Y26  1  0.25000000  0.00000000  0.00000000  1.0
  Y3+  Y26  1  0.75000000  0.00000000  0.00000000  1.0
  Y3+  Y27  1  0.25000000  0.00000000  0.50000000  1.0
  Y3+  Y27  1  0.75000000  0.00000000  0.50000000  1.0
  Y3+  Y28  1  0.25000000  0.50000000  0.00000000  1.0
  Y3+  Y28  1  0.75000000  0.50000000  0.00000000  1.0
  Y3+  Y29  1  0.25000000  0.50000000  0.50000000  1.0
  Y3+  Y29  1  0.75000000  0.50000000  0.50000000  1.0
  Y3+  Y30  1  0.37500000  0.89400500  0.60599500  1.0
  Y3+  Y30  1  0.87500000  0.89400500  0.60599500  1.0
  Y3+  Y31  1  0.37500000  0.60599500  0.89400500  1.0
  Y3+  Y31  1  0.87500000  0.60599500  0.89400500  1.0
  Br-  Br4i  1  0.06082250  0.37819000  0.37819000  1.0
  Br-  Br4i  1  0.56082250  0.37819000  0.37819000  1.0
  Br-  Br4i  1  0.06082250  0.37819000  0.87819000  1.0
  Br-  Br4i  1  0.56082250  0.37819000  0.87819000  1.0
  Br-  Br4i  1  0.06082250  0.87819000  0.37819000  1.0
  Br-  Br4i  1  0.56082250  0.87819000  0.37819000  1.0
  Br-  Br4i  1  0.06082250  0.87819000  0.87819000  1.0
  Br-  Br4i  1  0.56082250  0.87819000  0.87819000  1.0
  Br-  Br4i  1  0.31082250  0.37819000  0.37819000  1.0
  Br-  Br4i  1  0.81082250  0.37819000  0.37819000  1.0
  Br-  Br4i  1  0.31082250  0.37819000  0.87819000  1.0
  Br-  Br4i  1  0.81082250  0.37819000  0.87819000  1.0
  Br-  Br4i  1  0.31082250  0.87819000  0.37819000  1.0
  Br-  Br4i  1  0.81082250  0.87819000  0.37819000  1.0
  Br-  Br4i  1  0.31082250  0.87819000  0.87819000  1.0
  Br-  Br4i  1  0.81082250  0.87819000  0.87819000  1.0
  Br-  Br4i  1  0.18917750  0.12181000  0.12181000  1.0
  Br-  Br4i  1  0.68917750  0.12181000  0.12181000  1.0
  Br-  Br4i  1  0.18917750  0.12181000  0.62181000  1.0
  Br-  Br4i  1  0.68917750  0.12181000  0.62181000  1.0
  Br-  Br4i  1  0.18917750  0.62181000  0.12181000  1.0
  Br-  Br4i  1  0.68917750  0.62181000  0.12181000  1.0
  Br-  Br4i  1  0.18917750  0.62181000  0.62181000  1.0
  Br-  Br4i  1  0.68917750  0.62181000  0.62181000  1.0
  Br-  Br4i  1  0.43917750  0.12181000  0.12181000  1.0
  Br-  Br4i  1  0.93917750  0.12181000  0.12181000  1.0
  Br-  Br4i  1  0.43917750  0.12181000  0.62181000  1.0
  Br-  Br4i  1  0.93917750  0.12181000  0.62181000  1.0
  Br-  Br4i  1  0.43917750  0.62181000  0.12181000  1.0
  Br-  Br4i  1  0.93917750  0.62181000  0.12181000  1.0
  Br-  Br4i  1  0.43917750  0.62181000  0.62181000  1.0
  Br-  Br4i  1  0.93917750  0.62181000  0.62181000  1.0
  Br-  Br8j  1  0.19064250  0.28849500  0.45901500  1.0
  Br-  Br8j  1  0.69064250  0.28849500  0.45901500  1.0
  Br-  Br8j  1  0.19064250  0.28849500  0.95901500  1.0
  Br-  Br8j  1  0.69064250  0.28849500  0.95901500  1.0
  Br-  Br8j  1  0.19064250  0.78849500  0.45901500  1.0
  Br-  Br8j  1  0.69064250  0.78849500  0.45901500  1.0
  Br-  Br8j  1  0.19064250  0.78849500  0.95901500  1.0
  Br-  Br8j  1  0.69064250  0.78849500  0.95901500  1.0
  Br-  Br8j  1  0.44064250  0.28849500  0.45901500  1.0
  Br-  Br8j  1  0.94064250  0.28849500  0.45901500  1.0
  Br-  Br8j  1  0.44064250  0.28849500  0.95901500  1.0
  Br-  Br8j  1  0.94064250  0.28849500  0.95901500  1.0
  Br-  Br8j  1  0.44064250  0.78849500  0.45901500  1.0
  Br-  Br8j  1  0.94064250  0.78849500  0.45901500  1.0
  Br-  Br8j  1  0.44064250  0.78849500  0.95901500  1.0
  Br-  Br8j  1  0.94064250  0.78849500  0.95901500  1.0
  Br-  Br8j  1  0.05935750  0.04098500  0.21150500  1.0
  Br-  Br8j  1  0.55935750  0.04098500  0.21150500  1.0
  Br-  Br8j  1  0.05935750  0.04098500  0.71150500  1.0
  Br-  Br8j  1  0.55935750  0.04098500  0.71150500  1.0
  Br-  Br8j  1  0.05935750  0.54098500  0.21150500  1.0
  Br-  Br8j  1  0.55935750  0.54098500  0.21150500  1.0
  Br-  Br8j  1  0.05935750  0.54098500  0.71150500  1.0
  Br-  Br8j  1  0.55935750  0.54098500  0.71150500  1.0
  Br-  Br8j  1  0.30935750  0.04098500  0.21150500  1.0
  Br-  Br8j  1  0.80935750  0.04098500  0.21150500  1.0
  Br-  Br8j  1  0.30935750  0.04098500  0.71150500  1.0
  Br-  Br8j  1  0.80935750  0.04098500  0.71150500  1.0
  Br-  Br8j  1  0.30935750  0.54098500  0.21150500  1.0
  Br-  Br8j  1  0.80935750  0.54098500  0.21150500  1.0
  Br-  Br8j  1  0.30935750  0.54098500  0.71150500  1.0
  Br-  Br8j  1  0.80935750  0.54098500  0.71150500  1.0
  Br-  Br8j  1  0.19064250  0.45901500  0.28849500  1.0
  Br-  Br8j  1  0.69064250  0.45901500  0.28849500  1.0
  Br-  Br8j  1  0.19064250  0.45901500  0.78849500  1.0
  Br-  Br8j  1  0.69064250  0.45901500  0.78849500  1.0
  Br-  Br8j  1  0.19064250  0.95901500  0.28849500  1.0
  Br-  Br8j  1  0.69064250  0.95901500  0.28849500  1.0
  Br-  Br8j  1  0.19064250  0.95901500  0.78849500  1.0
  Br-  Br8j  1  0.69064250  0.95901500  0.78849500  1.0
  Br-  Br8j  1  0.44064250  0.45901500  0.28849500  1.0
  Br-  Br8j  1  0.94064250  0.45901500  0.28849500  1.0
  Br-  Br8j  1  0.44064250  0.45901500  0.78849500  1.0
  Br-  Br8j  1  0.94064250  0.45901500  0.78849500  1.0
  Br-  Br8j  1  0.44064250  0.95901500  0.28849500  1.0
  Br-  Br8j  1  0.94064250  0.95901500  0.28849500  1.0
  Br-  Br8j  1  0.44064250  0.95901500  0.78849500  1.0
  Br-  Br8j  1  0.94064250  0.95901500  0.78849500  1.0
  Br-  Br8j  1  0.05935750  0.21150500  0.04098500  1.0
  Br-  Br8j  1  0.55935750  0.21150500  0.04098500  1.0
  Br-  Br8j  1  0.05935750  0.21150500  0.54098500  1.0
  Br-  Br8j  1  0.55935750  0.21150500  0.54098500  1.0
  Br-  Br8j  1  0.05935750  0.71150500  0.04098500  1.0
  Br-  Br8j  1  0.55935750  0.71150500  0.04098500  1.0
  Br-  Br8j  1  0.05935750  0.71150500  0.54098500  1.0
  Br-  Br8j  1  0.55935750  0.71150500  0.54098500  1.0
  Br-  Br8j  1  0.30935750  0.21150500  0.04098500  1.0
  Br-  Br8j  1  0.80935750  0.21150500  0.04098500  1.0
  Br-  Br8j  1  0.30935750  0.21150500  0.54098500  1.0
  Br-  Br8j  1  0.80935750  0.21150500  0.54098500  1.0
  Br-  Br8j  1  0.30935750  0.71150500  0.04098500  1.0
  Br-  Br8j  1  0.80935750  0.71150500  0.04098500  1.0
  Br-  Br8j  1  0.30935750  0.71150500  0.54098500  1.0
  Br-  Br8j  1  0.80935750  0.71150500  0.54098500  1.0
