# generated using pymatgen
data_Li3SbS3
_symmetry_space_group_name_H-M   'P 1'
_cell_length_a   13.57660000
_cell_length_b   23.90130000
_cell_length_c   10.09120000
_cell_angle_alpha   90.00000000
_cell_angle_beta   90.00000000
_cell_angle_gamma   90.00000000
_symmetry_Int_Tables_number   1
_chemical_formula_structural   Li3SbS3
_chemical_formula_sum   'Li72 Sb24 S72'
_cell_volume   3274.57814893
_cell_formula_units_Z   24
loop_
 _symmetry_equiv_pos_site_id
 _symmetry_equiv_pos_as_xyz
  1  'x, y, z'
loop_
 _atom_type_symbol
 _atom_type_oxidation_number
  Li+  1.0
  Sb3+  3.0
  S2-  -2.0
loop_
 _atom_site_type_symbol
 _atom_site_label
 _atom_site_symmetry_multiplicity
 _atom_site_fract_x
 _atom_site_fract_y
 _atom_site_fract_z
 _atom_site_occupancy
  Li+  Li1  1  0.23005000  0.14843333  0.22430000  1.0
  Li+  Li1  1  0.23005000  0.48176667  0.22430000  1.0
  Li+  Li1  1  0.23005000  0.81510000  0.22430000  1.0
  Li+  Li1  1  0.73005000  0.14843333  0.22430000  1.0
  Li+  Li1  1  0.73005000  0.48176667  0.22430000  1.0
  Li+  Li1  1  0.73005000  0.81510000  0.22430000  1.0
  Li+  Li1  1  0.26995000  0.18490000  0.72430000  1.0
  Li+  Li1  1  0.26995000  0.51823333  0.72430000  1.0
  Li+  Li1  1  0.26995000  0.85156667  0.72430000  1.0
  Li+  Li1  1  0.76995000  0.18490000  0.72430000  1.0
  Li+  Li1  1  0.76995000  0.51823333  0.72430000  1.0
  Li+  Li1  1  0.76995000  0.85156667  0.72430000  1.0
  Li+  Li1  1  0.48005000  0.01823333  0.72430000  1.0
  Li+  Li1  1  0.48005000  0.35156667  0.72430000  1.0
  Li+  Li1  1  0.48005000  0.68490000  0.72430000  1.0
  Li+  Li1  1  0.98005000  0.01823333  0.72430000  1.0
  Li+  Li1  1  0.98005000  0.35156667  0.72430000  1.0
  Li+  Li1  1  0.98005000  0.68490000  0.72430000  1.0
  Li+  Li1  1  0.01995000  0.31510000  0.22430000  1.0
  Li+  Li1  1  0.01995000  0.64843333  0.22430000  1.0
  Li+  Li1  1  0.01995000  0.98176667  0.22430000  1.0
  Li+  Li1  1  0.51995000  0.31510000  0.22430000  1.0
  Li+  Li1  1  0.51995000  0.64843333  0.22430000  1.0
  Li+  Li1  1  0.51995000  0.98176667  0.22430000  1.0
  Li+  Li2  1  0.42145000  0.19593333  0.18230000  1.0
  Li+  Li2  1  0.42145000  0.52926667  0.18230000  1.0
  Li+  Li2  1  0.42145000  0.86260000  0.18230000  1.0
  Li+  Li2  1  0.92145000  0.19593333  0.18230000  1.0
  Li+  Li2  1  0.92145000  0.52926667  0.18230000  1.0
  Li+  Li2  1  0.92145000  0.86260000  0.18230000  1.0
  Li+  Li2  1  0.07855000  0.13740000  0.68230000  1.0
  Li+  Li2  1  0.07855000  0.47073333  0.68230000  1.0
  Li+  Li2  1  0.07855000  0.80406667  0.68230000  1.0
  Li+  Li2  1  0.57855000  0.13740000  0.68230000  1.0
  Li+  Li2  1  0.57855000  0.47073333  0.68230000  1.0
  Li+  Li2  1  0.57855000  0.80406667  0.68230000  1.0
  Li+  Li2  1  0.17145000  0.30406667  0.68230000  1.0
  Li+  Li2  1  0.17145000  0.63740000  0.68230000  1.0
  Li+  Li2  1  0.17145000  0.97073333  0.68230000  1.0
  Li+  Li2  1  0.67145000  0.30406667  0.68230000  1.0
  Li+  Li2  1  0.67145000  0.63740000  0.68230000  1.0
  Li+  Li2  1  0.67145000  0.97073333  0.68230000  1.0
  Li+  Li2  1  0.32855000  0.02926667  0.18230000  1.0
  Li+  Li2  1  0.32855000  0.36260000  0.18230000  1.0
  Li+  Li2  1  0.32855000  0.69593333  0.18230000  1.0
  Li+  Li2  1  0.82855000  0.02926667  0.18230000  1.0
  Li+  Li2  1  0.82855000  0.36260000  0.18230000  1.0
  Li+  Li2  1  0.82855000  0.69593333  0.18230000  1.0
  Li+  Li3  1  0.43760000  0.24626667  0.88620000  1.0
  Li+  Li3  1  0.43760000  0.57960000  0.88620000  1.0
  Li+  Li3  1  0.43760000  0.91293333  0.88620000  1.0
  Li+  Li3  1  0.93760000  0.24626667  0.88620000  1.0
  Li+  Li3  1  0.93760000  0.57960000  0.88620000  1.0
  Li+  Li3  1  0.93760000  0.91293333  0.88620000  1.0
  Li+  Li3  1  0.06240000  0.08706667  0.38620000  1.0
  Li+  Li3  1  0.06240000  0.42040000  0.38620000  1.0
  Li+  Li3  1  0.06240000  0.75373333  0.38620000  1.0
  Li+  Li3  1  0.56240000  0.08706667  0.38620000  1.0
  Li+  Li3  1  0.56240000  0.42040000  0.38620000  1.0
  Li+  Li3  1  0.56240000  0.75373333  0.38620000  1.0
  Li+  Li3  1  0.18760000  0.25373333  0.38620000  1.0
  Li+  Li3  1  0.18760000  0.58706667  0.38620000  1.0
  Li+  Li3  1  0.18760000  0.92040000  0.38620000  1.0
  Li+  Li3  1  0.68760000  0.25373333  0.38620000  1.0
  Li+  Li3  1  0.68760000  0.58706667  0.38620000  1.0
  Li+  Li3  1  0.68760000  0.92040000  0.38620000  1.0
  Li+  Li3  1  0.31240000  0.07960000  0.88620000  1.0
  Li+  Li3  1  0.31240000  0.41293333  0.88620000  1.0
  Li+  Li3  1  0.31240000  0.74626667  0.88620000  1.0
  Li+  Li3  1  0.81240000  0.07960000  0.88620000  1.0
  Li+  Li3  1  0.81240000  0.41293333  0.88620000  1.0
  Li+  Li3  1  0.81240000  0.74626667  0.88620000  1.0
  Sb3+  Sb1  1  0.19754000  0.25486667  0.00000000  1.0
  Sb3+  Sb1  1  0.19754000  0.58820000  0.00000000  1.0
  Sb3+  Sb1  1  0.19754000  0.92153333  0.00000000  1.0
  Sb3+  Sb1  1  0.69754000  0.25486667  0.00000000  1.0
  Sb3+  Sb1  1  0.69754000  0.58820000  0.00000000  1.0
  Sb3+  Sb1  1  0.69754000  0.92153333  0.00000000  1.0
  Sb3+  Sb1  1  0.30246000  0.07846667  0.50000000  1.0
  Sb3+  Sb1  1  0.30246000  0.41180000  0.50000000  1.0
  Sb3+  Sb1  1  0.30246000  0.74513333  0.50000000  1.0
  Sb3+  Sb1  1  0.80246000  0.07846667  0.50000000  1.0
  Sb3+  Sb1  1  0.80246000  0.41180000  0.50000000  1.0
  Sb3+  Sb1  1  0.80246000  0.74513333  0.50000000  1.0
  Sb3+  Sb1  1  0.44754000  0.24513333  0.50000000  1.0
  Sb3+  Sb1  1  0.44754000  0.57846667  0.50000000  1.0
  Sb3+  Sb1  1  0.44754000  0.91180000  0.50000000  1.0
  Sb3+  Sb1  1  0.94754000  0.24513333  0.50000000  1.0
  Sb3+  Sb1  1  0.94754000  0.57846667  0.50000000  1.0
  Sb3+  Sb1  1  0.94754000  0.91180000  0.50000000  1.0
  Sb3+  Sb1  1  0.05246000  0.08820000  0.00000000  1.0
  Sb3+  Sb1  1  0.05246000  0.42153333  0.00000000  1.0
  Sb3+  Sb1  1  0.05246000  0.75486667  0.00000000  1.0
  Sb3+  Sb1  1  0.55246000  0.08820000  0.00000000  1.0
  Sb3+  Sb1  1  0.55246000  0.42153333  0.00000000  1.0
  Sb3+  Sb1  1  0.55246000  0.75486667  0.00000000  1.0
  S2-  S1  1  0.09820000  0.22090000  0.18250000  1.0
  S2-  S1  1  0.09820000  0.55423333  0.18250000  1.0
  S2-  S1  1  0.09820000  0.88756667  0.18250000  1.0
  S2-  S1  1  0.59820000  0.22090000  0.18250000  1.0
  S2-  S1  1  0.59820000  0.55423333  0.18250000  1.0
  S2-  S1  1  0.59820000  0.88756667  0.18250000  1.0
  S2-  S1  1  0.40180000  0.11243333  0.68250000  1.0
  S2-  S1  1  0.40180000  0.44576667  0.68250000  1.0
  S2-  S1  1  0.40180000  0.77910000  0.68250000  1.0
  S2-  S1  1  0.90180000  0.11243333  0.68250000  1.0
  S2-  S1  1  0.90180000  0.44576667  0.68250000  1.0
  S2-  S1  1  0.90180000  0.77910000  0.68250000  1.0
  S2-  S1  1  0.34820000  0.27910000  0.68250000  1.0
  S2-  S1  1  0.34820000  0.61243333  0.68250000  1.0
  S2-  S1  1  0.34820000  0.94576667  0.68250000  1.0
  S2-  S1  1  0.84820000  0.27910000  0.68250000  1.0
  S2-  S1  1  0.84820000  0.61243333  0.68250000  1.0
  S2-  S1  1  0.84820000  0.94576667  0.68250000  1.0
  S2-  S1  1  0.15180000  0.05423333  0.18250000  1.0
  S2-  S1  1  0.15180000  0.38756667  0.18250000  1.0
  S2-  S1  1  0.15180000  0.72090000  0.18250000  1.0
  S2-  S1  1  0.65180000  0.05423333  0.18250000  1.0
  S2-  S1  1  0.65180000  0.38756667  0.18250000  1.0
  S2-  S1  1  0.65180000  0.72090000  0.18250000  1.0
  S2-  S2  1  0.31813500  0.17888667  0.99170000  1.0
  S2-  S2  1  0.31813500  0.51222000  0.99170000  1.0
  S2-  S2  1  0.31813500  0.84555333  0.99170000  1.0
  S2-  S2  1  0.81813500  0.17888667  0.99170000  1.0
  S2-  S2  1  0.81813500  0.51222000  0.99170000  1.0
  S2-  S2  1  0.81813500  0.84555333  0.99170000  1.0
  S2-  S2  1  0.18186500  0.15444667  0.49170000  1.0
  S2-  S2  1  0.18186500  0.48778000  0.49170000  1.0
  S2-  S2  1  0.18186500  0.82111333  0.49170000  1.0
  S2-  S2  1  0.68186500  0.15444667  0.49170000  1.0
  S2-  S2  1  0.68186500  0.48778000  0.49170000  1.0
  S2-  S2  1  0.68186500  0.82111333  0.49170000  1.0
  S2-  S2  1  0.06813500  0.32111333  0.49170000  1.0
  S2-  S2  1  0.06813500  0.65444667  0.49170000  1.0
  S2-  S2  1  0.06813500  0.98778000  0.49170000  1.0
  S2-  S2  1  0.56813500  0.32111333  0.49170000  1.0
  S2-  S2  1  0.56813500  0.65444667  0.49170000  1.0
  S2-  S2  1  0.56813500  0.98778000  0.49170000  1.0
  S2-  S2  1  0.43186500  0.01222000  0.99170000  1.0
  S2-  S2  1  0.43186500  0.34555333  0.99170000  1.0
  S2-  S2  1  0.43186500  0.67888667  0.99170000  1.0
  S2-  S2  1  0.93186500  0.01222000  0.99170000  1.0
  S2-  S2  1  0.93186500  0.34555333  0.99170000  1.0
  S2-  S2  1  0.93186500  0.67888667  0.99170000  1.0
  S2-  S3  1  0.10205000  0.22643333  0.80730000  1.0
  S2-  S3  1  0.10205000  0.55976667  0.80730000  1.0
  S2-  S3  1  0.10205000  0.89310000  0.80730000  1.0
  S2-  S3  1  0.60205000  0.22643333  0.80730000  1.0
  S2-  S3  1  0.60205000  0.55976667  0.80730000  1.0
  S2-  S3  1  0.60205000  0.89310000  0.80730000  1.0
  S2-  S3  1  0.39795000  0.10690000  0.30730000  1.0
  S2-  S3  1  0.39795000  0.44023333  0.30730000  1.0
  S2-  S3  1  0.39795000  0.77356667  0.30730000  1.0
  S2-  S3  1  0.89795000  0.10690000  0.30730000  1.0
  S2-  S3  1  0.89795000  0.44023333  0.30730000  1.0
  S2-  S3  1  0.89795000  0.77356667  0.30730000  1.0
  S2-  S3  1  0.35205000  0.27356667  0.30730000  1.0
  S2-  S3  1  0.35205000  0.60690000  0.30730000  1.0
  S2-  S3  1  0.35205000  0.94023333  0.30730000  1.0
  S2-  S3  1  0.85205000  0.27356667  0.30730000  1.0
  S2-  S3  1  0.85205000  0.60690000  0.30730000  1.0
  S2-  S3  1  0.85205000  0.94023333  0.30730000  1.0
  S2-  S3  1  0.14795000  0.05976667  0.80730000  1.0
  S2-  S3  1  0.14795000  0.39310000  0.80730000  1.0
  S2-  S3  1  0.14795000  0.72643333  0.80730000  1.0
  S2-  S3  1  0.64795000  0.05976667  0.80730000  1.0
  S2-  S3  1  0.64795000  0.39310000  0.80730000  1.0
  S2-  S3  1  0.64795000  0.72643333  0.80730000  1.0
