# generated using pymatgen
data_Li2SO4
_symmetry_space_group_name_H-M   'P 1'
_cell_length_a   9.90000000
_cell_length_b   24.63000000
_cell_length_c   8.45000000
_cell_angle_alpha   107.50000000
_cell_angle_beta   90.00000000
_cell_angle_gamma   90.00000000
_symmetry_Int_Tables_number   1
_chemical_formula_structural   Li2SO4
_chemical_formula_sum   'Li48 S24 O96'
_cell_volume   1965.06000701
_cell_formula_units_Z   24
loop_
 _symmetry_equiv_pos_site_id
 _symmetry_equiv_pos_as_xyz
  1  'x, y, z'
loop_
 _atom_type_symbol
 _atom_type_oxidation_number
  Li+  1.0
  S6+  6.0
  O2-  -2.0
loop_
 _atom_site_type_symbol
 _atom_site_label
 _atom_site_symmetry_multiplicity
 _atom_site_fract_x
 _atom_site_fract_y
 _atom_site_fract_z
 _atom_site_occupancy
  Li+  Li1  1  0.46555000  0.23310000  0.38150000  1.0
  Li+  Li1  1  0.46555000  0.56643333  0.38150000  1.0
  Li+  Li1  1  0.46555000  0.89976667  0.38150000  1.0
  Li+  Li1  1  0.96555000  0.23310000  0.38150000  1.0
  Li+  Li1  1  0.96555000  0.56643333  0.38150000  1.0
  Li+  Li1  1  0.96555000  0.89976667  0.38150000  1.0
  Li+  Li1  1  0.21555000  0.26690000  0.61850000  1.0
  Li+  Li1  1  0.21555000  0.60023333  0.61850000  1.0
  Li+  Li1  1  0.21555000  0.93356667  0.61850000  1.0
  Li+  Li1  1  0.71555000  0.26690000  0.61850000  1.0
  Li+  Li1  1  0.71555000  0.60023333  0.61850000  1.0
  Li+  Li1  1  0.71555000  0.93356667  0.61850000  1.0
  Li+  Li1  1  0.03445000  0.10023333  0.61850000  1.0
  Li+  Li1  1  0.03445000  0.43356667  0.61850000  1.0
  Li+  Li1  1  0.03445000  0.76690000  0.61850000  1.0
  Li+  Li1  1  0.53445000  0.10023333  0.61850000  1.0
  Li+  Li1  1  0.53445000  0.43356667  0.61850000  1.0
  Li+  Li1  1  0.53445000  0.76690000  0.61850000  1.0
  Li+  Li1  1  0.28445000  0.06643333  0.38150000  1.0
  Li+  Li1  1  0.28445000  0.39976667  0.38150000  1.0
  Li+  Li1  1  0.28445000  0.73310000  0.38150000  1.0
  Li+  Li1  1  0.78445000  0.06643333  0.38150000  1.0
  Li+  Li1  1  0.78445000  0.39976667  0.38150000  1.0
  Li+  Li1  1  0.78445000  0.73310000  0.38150000  1.0
  Li+  Li2  1  0.46120000  0.31190000  0.12870000  1.0
  Li+  Li2  1  0.46120000  0.64523333  0.12870000  1.0
  Li+  Li2  1  0.46120000  0.97856667  0.12870000  1.0
  Li+  Li2  1  0.96120000  0.31190000  0.12870000  1.0
  Li+  Li2  1  0.96120000  0.64523333  0.12870000  1.0
  Li+  Li2  1  0.96120000  0.97856667  0.12870000  1.0
  Li+  Li2  1  0.21120000  0.18810000  0.87130000  1.0
  Li+  Li2  1  0.21120000  0.52143333  0.87130000  1.0
  Li+  Li2  1  0.21120000  0.85476667  0.87130000  1.0
  Li+  Li2  1  0.71120000  0.18810000  0.87130000  1.0
  Li+  Li2  1  0.71120000  0.52143333  0.87130000  1.0
  Li+  Li2  1  0.71120000  0.85476667  0.87130000  1.0
  Li+  Li2  1  0.03880000  0.02143333  0.87130000  1.0
  Li+  Li2  1  0.03880000  0.35476667  0.87130000  1.0
  Li+  Li2  1  0.03880000  0.68810000  0.87130000  1.0
  Li+  Li2  1  0.53880000  0.02143333  0.87130000  1.0
  Li+  Li2  1  0.53880000  0.35476667  0.87130000  1.0
  Li+  Li2  1  0.53880000  0.68810000  0.87130000  1.0
  Li+  Li2  1  0.28880000  0.14523333  0.12870000  1.0
  Li+  Li2  1  0.28880000  0.47856667  0.12870000  1.0
  Li+  Li2  1  0.28880000  0.81190000  0.12870000  1.0
  Li+  Li2  1  0.78880000  0.14523333  0.12870000  1.0
  Li+  Li2  1  0.78880000  0.47856667  0.12870000  1.0
  Li+  Li2  1  0.78880000  0.81190000  0.12870000  1.0
  S6+  S1  1  0.21790000  0.27036667  0.25170000  1.0
  S6+  S1  1  0.21790000  0.60370000  0.25170000  1.0
  S6+  S1  1  0.21790000  0.93703333  0.25170000  1.0
  S6+  S1  1  0.71790000  0.27036667  0.25170000  1.0
  S6+  S1  1  0.71790000  0.60370000  0.25170000  1.0
  S6+  S1  1  0.71790000  0.93703333  0.25170000  1.0
  S6+  S1  1  0.46790000  0.22963333  0.74830000  1.0
  S6+  S1  1  0.46790000  0.56296667  0.74830000  1.0
  S6+  S1  1  0.46790000  0.89630000  0.74830000  1.0
  S6+  S1  1  0.96790000  0.22963333  0.74830000  1.0
  S6+  S1  1  0.96790000  0.56296667  0.74830000  1.0
  S6+  S1  1  0.96790000  0.89630000  0.74830000  1.0
  S6+  S1  1  0.28210000  0.06296667  0.74830000  1.0
  S6+  S1  1  0.28210000  0.39630000  0.74830000  1.0
  S6+  S1  1  0.28210000  0.72963333  0.74830000  1.0
  S6+  S1  1  0.78210000  0.06296667  0.74830000  1.0
  S6+  S1  1  0.78210000  0.39630000  0.74830000  1.0
  S6+  S1  1  0.78210000  0.72963333  0.74830000  1.0
  S6+  S1  1  0.03210000  0.10370000  0.25170000  1.0
  S6+  S1  1  0.03210000  0.43703333  0.25170000  1.0
  S6+  S1  1  0.03210000  0.77036667  0.25170000  1.0
  S6+  S1  1  0.53210000  0.10370000  0.25170000  1.0
  S6+  S1  1  0.53210000  0.43703333  0.25170000  1.0
  S6+  S1  1  0.53210000  0.77036667  0.25170000  1.0
  O2-  O1  1  0.28280000  0.32113333  0.22910000  1.0
  O2-  O1  1  0.28280000  0.65446667  0.22910000  1.0
  O2-  O1  1  0.28280000  0.98780000  0.22910000  1.0
  O2-  O1  1  0.78280000  0.32113333  0.22910000  1.0
  O2-  O1  1  0.78280000  0.65446667  0.22910000  1.0
  O2-  O1  1  0.78280000  0.98780000  0.22910000  1.0
  O2-  O1  1  0.03280000  0.17886667  0.77090000  1.0
  O2-  O1  1  0.03280000  0.51220000  0.77090000  1.0
  O2-  O1  1  0.03280000  0.84553333  0.77090000  1.0
  O2-  O1  1  0.53280000  0.17886667  0.77090000  1.0
  O2-  O1  1  0.53280000  0.51220000  0.77090000  1.0
  O2-  O1  1  0.53280000  0.84553333  0.77090000  1.0
  O2-  O1  1  0.21720000  0.01220000  0.77090000  1.0
  O2-  O1  1  0.21720000  0.34553333  0.77090000  1.0
  O2-  O1  1  0.21720000  0.67886667  0.77090000  1.0
  O2-  O1  1  0.71720000  0.01220000  0.77090000  1.0
  O2-  O1  1  0.71720000  0.34553333  0.77090000  1.0
  O2-  O1  1  0.71720000  0.67886667  0.77090000  1.0
  O2-  O1  1  0.46720000  0.15446667  0.22910000  1.0
  O2-  O1  1  0.46720000  0.48780000  0.22910000  1.0
  O2-  O1  1  0.46720000  0.82113333  0.22910000  1.0
  O2-  O1  1  0.96720000  0.15446667  0.22910000  1.0
  O2-  O1  1  0.96720000  0.48780000  0.22910000  1.0
  O2-  O1  1  0.96720000  0.82113333  0.22910000  1.0
  O2-  O2  1  0.24675000  0.22113333  0.10490000  1.0
  O2-  O2  1  0.24675000  0.55446667  0.10490000  1.0
  O2-  O2  1  0.24675000  0.88780000  0.10490000  1.0
  O2-  O2  1  0.74675000  0.22113333  0.10490000  1.0
  O2-  O2  1  0.74675000  0.55446667  0.10490000  1.0
  O2-  O2  1  0.74675000  0.88780000  0.10490000  1.0
  O2-  O2  1  0.49675000  0.27886667  0.89510000  1.0
  O2-  O2  1  0.49675000  0.61220000  0.89510000  1.0
  O2-  O2  1  0.49675000  0.94553333  0.89510000  1.0
  O2-  O2  1  0.99675000  0.27886667  0.89510000  1.0
  O2-  O2  1  0.99675000  0.61220000  0.89510000  1.0
  O2-  O2  1  0.99675000  0.94553333  0.89510000  1.0
  O2-  O2  1  0.25325000  0.11220000  0.89510000  1.0
  O2-  O2  1  0.25325000  0.44553333  0.89510000  1.0
  O2-  O2  1  0.25325000  0.77886667  0.89510000  1.0
  O2-  O2  1  0.75325000  0.11220000  0.89510000  1.0
  O2-  O2  1  0.75325000  0.44553333  0.89510000  1.0
  O2-  O2  1  0.75325000  0.77886667  0.89510000  1.0
  O2-  O2  1  0.00325000  0.05446667  0.10490000  1.0
  O2-  O2  1  0.00325000  0.38780000  0.10490000  1.0
  O2-  O2  1  0.00325000  0.72113333  0.10490000  1.0
  O2-  O2  1  0.50325000  0.05446667  0.10490000  1.0
  O2-  O2  1  0.50325000  0.38780000  0.10490000  1.0
  O2-  O2  1  0.50325000  0.72113333  0.10490000  1.0
  O2-  O3  1  0.27545000  0.25833333  0.39790000  1.0
  O2-  O3  1  0.27545000  0.59166667  0.39790000  1.0
  O2-  O3  1  0.27545000  0.92500000  0.39790000  1.0
  O2-  O3  1  0.77545000  0.25833333  0.39790000  1.0
  O2-  O3  1  0.77545000  0.59166667  0.39790000  1.0
  O2-  O3  1  0.77545000  0.92500000  0.39790000  1.0
  O2-  O3  1  0.02545000  0.24166667  0.60210000  1.0
  O2-  O3  1  0.02545000  0.57500000  0.60210000  1.0
  O2-  O3  1  0.02545000  0.90833333  0.60210000  1.0
  O2-  O3  1  0.52545000  0.24166667  0.60210000  1.0
  O2-  O3  1  0.52545000  0.57500000  0.60210000  1.0
  O2-  O3  1  0.52545000  0.90833333  0.60210000  1.0
  O2-  O3  1  0.22455000  0.07500000  0.60210000  1.0
  O2-  O3  1  0.22455000  0.40833333  0.60210000  1.0
  O2-  O3  1  0.22455000  0.74166667  0.60210000  1.0
  O2-  O3  1  0.72455000  0.07500000  0.60210000  1.0
  O2-  O3  1  0.72455000  0.40833333  0.60210000  1.0
  O2-  O3  1  0.72455000  0.74166667  0.60210000  1.0
  O2-  O3  1  0.47455000  0.09166667  0.39790000  1.0
  O2-  O3  1  0.47455000  0.42500000  0.39790000  1.0
  O2-  O3  1  0.47455000  0.75833333  0.39790000  1.0
  O2-  O3  1  0.97455000  0.09166667  0.39790000  1.0
  O2-  O3  1  0.97455000  0.42500000  0.39790000  1.0
  O2-  O3  1  0.97455000  0.75833333  0.39790000  1.0
  O2-  O4  1  0.07135000  0.27933333  0.27430000  1.0
  O2-  O4  1  0.07135000  0.61266667  0.27430000  1.0
  O2-  O4  1  0.07135000  0.94600000  0.27430000  1.0
  O2-  O4  1  0.57135000  0.27933333  0.27430000  1.0
  O2-  O4  1  0.57135000  0.61266667  0.27430000  1.0
  O2-  O4  1  0.57135000  0.94600000  0.27430000  1.0
  O2-  O4  1  0.32135000  0.22066667  0.72570000  1.0
  O2-  O4  1  0.32135000  0.55400000  0.72570000  1.0
  O2-  O4  1  0.32135000  0.88733333  0.72570000  1.0
  O2-  O4  1  0.82135000  0.22066667  0.72570000  1.0
  O2-  O4  1  0.82135000  0.55400000  0.72570000  1.0
  O2-  O4  1  0.82135000  0.88733333  0.72570000  1.0
  O2-  O4  1  0.42865000  0.05400000  0.72570000  1.0
  O2-  O4  1  0.42865000  0.38733333  0.72570000  1.0
  O2-  O4  1  0.42865000  0.72066667  0.72570000  1.0
  O2-  O4  1  0.92865000  0.05400000  0.72570000  1.0
  O2-  O4  1  0.92865000  0.38733333  0.72570000  1.0
  O2-  O4  1  0.92865000  0.72066667  0.72570000  1.0
  O2-  O4  1  0.17865000  0.11266667  0.27430000  1.0
  O2-  O4  1  0.17865000  0.44600000  0.27430000  1.0
  O2-  O4  1  0.17865000  0.77933333  0.27430000  1.0
  O2-  O4  1  0.67865000  0.11266667  0.27430000  1.0
  O2-  O4  1  0.67865000  0.44600000  0.27430000  1.0
  O2-  O4  1  0.67865000  0.77933333  0.27430000  1.0
