# generated using pymatgen
data_Li4SnSe3S
_symmetry_space_group_name_H-M   'P 1'
_cell_length_a   13.10774000
_cell_length_b   16.33392000
_cell_length_c   14.81640000
_cell_angle_alpha   90.00000000
_cell_angle_beta   90.00000000
_cell_angle_gamma   90.00000000
_symmetry_Int_Tables_number   1
_chemical_formula_structural   Li4SnSe3S
_chemical_formula_sum   'Li64 Sn16 Se48 S16'
_cell_volume   3172.20274554
_cell_formula_units_Z   16
loop_
 _symmetry_equiv_pos_site_id
 _symmetry_equiv_pos_as_xyz
  1  'x, y, z'
loop_
 _atom_type_symbol
 _atom_type_oxidation_number
  Li+  1.0
  Sn4+  4.0
  Se2-  -2.0
  S2-  -2.0
loop_
 _atom_site_type_symbol
 _atom_site_label
 _atom_site_symmetry_multiplicity
 _atom_site_fract_x
 _atom_site_fract_y
 _atom_site_fract_z
 _atom_site_occupancy
  Li+  Li1  1  0.31160000  0.12500000  0.58890000  1.0
  Li+  Li1  1  0.31160000  0.62500000  0.58890000  1.0
  Li+  Li1  1  0.81160000  0.12500000  0.58890000  1.0
  Li+  Li1  1  0.81160000  0.62500000  0.58890000  1.0
  Li+  Li1  1  0.18840000  0.37500000  0.41110000  1.0
  Li+  Li1  1  0.18840000  0.87500000  0.41110000  1.0
  Li+  Li1  1  0.68840000  0.37500000  0.41110000  1.0
  Li+  Li1  1  0.68840000  0.87500000  0.41110000  1.0
  Li+  Li1  1  0.06160000  0.37500000  0.91110000  1.0
  Li+  Li1  1  0.06160000  0.87500000  0.91110000  1.0
  Li+  Li1  1  0.56160000  0.37500000  0.91110000  1.0
  Li+  Li1  1  0.56160000  0.87500000  0.91110000  1.0
  Li+  Li1  1  0.43840000  0.12500000  0.08890000  1.0
  Li+  Li1  1  0.43840000  0.62500000  0.08890000  1.0
  Li+  Li1  1  0.93840000  0.12500000  0.08890000  1.0
  Li+  Li1  1  0.93840000  0.62500000  0.08890000  1.0
  Li+  Li2  1  0.34220000  0.00240000  0.82500000  1.0
  Li+  Li2  1  0.34220000  0.50240000  0.82500000  1.0
  Li+  Li2  1  0.84220000  0.00240000  0.82500000  1.0
  Li+  Li2  1  0.84220000  0.50240000  0.82500000  1.0
  Li+  Li2  1  0.15780000  0.25240000  0.17500000  1.0
  Li+  Li2  1  0.15780000  0.75240000  0.17500000  1.0
  Li+  Li2  1  0.65780000  0.25240000  0.17500000  1.0
  Li+  Li2  1  0.65780000  0.75240000  0.17500000  1.0
  Li+  Li2  1  0.09220000  0.49760000  0.67500000  1.0
  Li+  Li2  1  0.09220000  0.99760000  0.67500000  1.0
  Li+  Li2  1  0.59220000  0.49760000  0.67500000  1.0
  Li+  Li2  1  0.59220000  0.99760000  0.67500000  1.0
  Li+  Li2  1  0.09220000  0.25240000  0.67500000  1.0
  Li+  Li2  1  0.09220000  0.75240000  0.67500000  1.0
  Li+  Li2  1  0.59220000  0.25240000  0.67500000  1.0
  Li+  Li2  1  0.59220000  0.75240000  0.67500000  1.0
  Li+  Li2  1  0.34220000  0.24760000  0.82500000  1.0
  Li+  Li2  1  0.34220000  0.74760000  0.82500000  1.0
  Li+  Li2  1  0.84220000  0.24760000  0.82500000  1.0
  Li+  Li2  1  0.84220000  0.74760000  0.82500000  1.0
  Li+  Li2  1  0.15780000  0.49760000  0.17500000  1.0
  Li+  Li2  1  0.15780000  0.99760000  0.17500000  1.0
  Li+  Li2  1  0.65780000  0.49760000  0.17500000  1.0
  Li+  Li2  1  0.65780000  0.99760000  0.17500000  1.0
  Li+  Li2  1  0.40780000  0.24760000  0.32500000  1.0
  Li+  Li2  1  0.40780000  0.74760000  0.32500000  1.0
  Li+  Li2  1  0.90780000  0.24760000  0.32500000  1.0
  Li+  Li2  1  0.90780000  0.74760000  0.32500000  1.0
  Li+  Li2  1  0.40780000  0.00240000  0.32500000  1.0
  Li+  Li2  1  0.40780000  0.50240000  0.32500000  1.0
  Li+  Li2  1  0.90780000  0.00240000  0.32500000  1.0
  Li+  Li2  1  0.90780000  0.50240000  0.32500000  1.0
  Li+  Li24  1  0.26050000  0.00720000  0.99790000  1.0
  Li+  Li24  1  0.26050000  0.50720000  0.99790000  1.0
  Li+  Li25  1  0.76050000  0.00720000  0.99790000  1.0
  Li+  Li25  1  0.76050000  0.50720000  0.99790000  1.0
  Li+  Li26  1  0.23950000  0.25720000  0.00210000  1.0
  Li+  Li26  1  0.23950000  0.75720000  0.00210000  1.0
  Li+  Li27  1  0.01050000  0.49280000  0.50210000  1.0
  Li+  Li27  1  0.01050000  0.99280000  0.50210000  1.0
  Li+  Li28  1  0.51050000  0.25720000  0.50210000  1.0
  Li+  Li28  1  0.51050000  0.75720000  0.50210000  1.0
  Li+  Li29  1  0.76050000  0.24280000  0.99790000  1.0
  Li+  Li29  1  0.76050000  0.74280000  0.99790000  1.0
  Li+  Li30  1  0.98950000  0.24280000  0.49790000  1.0
  Li+  Li30  1  0.98950000  0.74280000  0.49790000  1.0
  Li+  Li31  1  0.48950000  0.00720000  0.49790000  1.0
  Li+  Li31  1  0.48950000  0.50720000  0.49790000  1.0
  Sn4+  Sn1  1  0.32135000  0.37500000  0.59223000  1.0
  Sn4+  Sn1  1  0.32135000  0.87500000  0.59223000  1.0
  Sn4+  Sn1  1  0.82135000  0.37500000  0.59223000  1.0
  Sn4+  Sn1  1  0.82135000  0.87500000  0.59223000  1.0
  Sn4+  Sn1  1  0.17865000  0.12500000  0.40777000  1.0
  Sn4+  Sn1  1  0.17865000  0.62500000  0.40777000  1.0
  Sn4+  Sn1  1  0.67865000  0.12500000  0.40777000  1.0
  Sn4+  Sn1  1  0.67865000  0.62500000  0.40777000  1.0
  Sn4+  Sn1  1  0.07135000  0.12500000  0.90777000  1.0
  Sn4+  Sn1  1  0.07135000  0.62500000  0.90777000  1.0
  Sn4+  Sn1  1  0.57135000  0.12500000  0.90777000  1.0
  Sn4+  Sn1  1  0.57135000  0.62500000  0.90777000  1.0
  Sn4+  Sn1  1  0.42865000  0.37500000  0.09223000  1.0
  Sn4+  Sn1  1  0.42865000  0.87500000  0.09223000  1.0
  Sn4+  Sn1  1  0.92865000  0.37500000  0.09223000  1.0
  Sn4+  Sn1  1  0.92865000  0.87500000  0.09223000  1.0
  Se2-  Se40  1  0.39199500  0.00120000  0.66183000  1.0
  Se2-  Se40  1  0.39199500  0.50120000  0.66183000  1.0
  Se2-  Se41  1  0.89199500  0.00120000  0.66183000  1.0
  Se2-  Se41  1  0.89199500  0.50120000  0.66183000  1.0
  Se2-  Se42  1  0.10800500  0.25120000  0.33817000  1.0
  Se2-  Se42  1  0.10800500  0.75120000  0.33817000  1.0
  Se2-  Se43  1  0.60800500  0.25120000  0.33817000  1.0
  Se2-  Se43  1  0.60800500  0.75120000  0.33817000  1.0
  Se2-  Se44  1  0.14199500  0.49880000  0.83817000  1.0
  Se2-  Se44  1  0.14199500  0.99880000  0.83817000  1.0
  Se2-  Se45  1  0.14199500  0.25120000  0.83817000  1.0
  Se2-  Se45  1  0.14199500  0.75120000  0.83817000  1.0
  Se2-  Se46  1  0.64199500  0.25120000  0.83817000  1.0
  Se2-  Se46  1  0.64199500  0.75120000  0.83817000  1.0
  Se2-  Se47  1  0.39199500  0.24880000  0.66183000  1.0
  Se2-  Se47  1  0.39199500  0.74880000  0.66183000  1.0
  Se2-  Se48  1  0.89199500  0.24880000  0.66183000  1.0
  Se2-  Se48  1  0.89199500  0.74880000  0.66183000  1.0
  Se2-  Se49  1  0.35800500  0.24880000  0.16183000  1.0
  Se2-  Se49  1  0.35800500  0.74880000  0.16183000  1.0
  Se2-  Se50  1  0.85800500  0.24880000  0.16183000  1.0
  Se2-  Se50  1  0.85800500  0.74880000  0.16183000  1.0
  Se2-  Se51  1  0.85800500  0.00120000  0.16183000  1.0
  Se2-  Se51  1  0.85800500  0.50120000  0.16183000  1.0
  Se2-  Se52  1  0.36510000  0.37500000  0.93160000  1.0
  Se2-  Se52  1  0.36510000  0.87500000  0.93160000  1.0
  Se2-  Se53  1  0.86510000  0.37500000  0.93160000  1.0
  Se2-  Se53  1  0.86510000  0.87500000  0.93160000  1.0
  Se2-  Se54  1  0.13490000  0.12500000  0.06840000  1.0
  Se2-  Se54  1  0.13490000  0.62500000  0.06840000  1.0
  Se2-  Se55  1  0.63490000  0.12500000  0.06840000  1.0
  Se2-  Se55  1  0.63490000  0.62500000  0.06840000  1.0
  Se2-  Se56  1  0.11510000  0.12500000  0.56840000  1.0
  Se2-  Se56  1  0.11510000  0.62500000  0.56840000  1.0
  Se2-  Se57  1  0.61510000  0.12500000  0.56840000  1.0
  Se2-  Se57  1  0.61510000  0.62500000  0.56840000  1.0
  Se2-  Se58  1  0.88490000  0.37500000  0.43160000  1.0
  Se2-  Se58  1  0.88490000  0.87500000  0.43160000  1.0
  Se2-  Se59  1  0.88230000  0.12500000  0.91668000  1.0
  Se2-  Se59  1  0.88230000  0.62500000  0.91668000  1.0
  Se2-  Se60  1  0.61770000  0.37500000  0.08332000  1.0
  Se2-  Se60  1  0.61770000  0.87500000  0.08332000  1.0
  Se2-  Se61  1  0.13230000  0.37500000  0.58332000  1.0
  Se2-  Se61  1  0.13230000  0.87500000  0.58332000  1.0
  Se2-  Se62  1  0.63230000  0.37500000  0.58332000  1.0
  Se2-  Se62  1  0.63230000  0.87500000  0.58332000  1.0
  Se2-  Se63  1  0.36770000  0.12500000  0.41668000  1.0
  Se2-  Se63  1  0.36770000  0.62500000  0.41668000  1.0
  S2-  S64  1  0.64199500  0.49880000  0.83817000  1.0
  S2-  S64  1  0.64199500  0.99880000  0.83817000  1.0
  S2-  S65  1  0.10800500  0.49880000  0.33817000  1.0
  S2-  S65  1  0.10800500  0.99880000  0.33817000  1.0
  S2-  S66  1  0.60800500  0.49880000  0.33817000  1.0
  S2-  S66  1  0.60800500  0.99880000  0.33817000  1.0
  S2-  S67  1  0.35800500  0.00120000  0.16183000  1.0
  S2-  S67  1  0.35800500  0.50120000  0.16183000  1.0
  S2-  S68  1  0.38490000  0.37500000  0.43160000  1.0
  S2-  S68  1  0.38490000  0.87500000  0.43160000  1.0
  S2-  S69  1  0.38230000  0.12500000  0.91668000  1.0
  S2-  S69  1  0.38230000  0.62500000  0.91668000  1.0
  S2-  S70  1  0.11770000  0.37500000  0.08332000  1.0
  S2-  S70  1  0.11770000  0.87500000  0.08332000  1.0
  S2-  S71  1  0.86770000  0.12500000  0.41668000  1.0
  S2-  S71  1  0.86770000  0.62500000  0.41668000  1.0
