# generated using pymatgen
data_Li4Zn(PO4)2
_symmetry_space_group_name_H-M   'P 1'
_cell_length_a   24.31647000
_cell_length_b   8.11990000
_cell_length_c   10.24192000
_cell_angle_alpha   90.00000000
_cell_angle_beta   90.00000000
_cell_angle_gamma   104.85890000
_symmetry_Int_Tables_number   1
_chemical_formula_structural   Li4Zn(PO4)2
_chemical_formula_sum   'Li48 Zn12 P24 O96'
_cell_volume   1954.61637650
_cell_formula_units_Z   12
loop_
 _symmetry_equiv_pos_site_id
 _symmetry_equiv_pos_as_xyz
  1  'x, y, z'
loop_
 _atom_type_symbol
 _atom_type_oxidation_number
  Li+  1.0
  Zn2+  2.0
  P5+  5.0
  O2-  -2.0
loop_
 _atom_site_type_symbol
 _atom_site_label
 _atom_site_symmetry_multiplicity
 _atom_site_fract_x
 _atom_site_fract_y
 _atom_site_fract_z
 _atom_site_occupancy
  Li+  Li1  1  0.28033333  0.34800000  0.35340000  1.0
  Li+  Li1  1  0.61366667  0.34800000  0.35340000  1.0
  Li+  Li1  1  0.94700000  0.34800000  0.35340000  1.0
  Li+  Li1  1  0.21966667  0.65200000  0.85340000  1.0
  Li+  Li1  1  0.55300000  0.65200000  0.85340000  1.0
  Li+  Li1  1  0.88633333  0.65200000  0.85340000  1.0
  Li+  Li1  1  0.05300000  0.65200000  0.64660000  1.0
  Li+  Li1  1  0.38633333  0.65200000  0.64660000  1.0
  Li+  Li1  1  0.71966667  0.65200000  0.64660000  1.0
  Li+  Li1  1  0.11366667  0.34800000  0.14660000  1.0
  Li+  Li1  1  0.44700000  0.34800000  0.14660000  1.0
  Li+  Li1  1  0.78033333  0.34800000  0.14660000  1.0
  Li+  Li2  1  0.20400000  0.11600000  0.16050000  1.0
  Li+  Li2  1  0.53733333  0.11600000  0.16050000  1.0
  Li+  Li2  1  0.87066667  0.11600000  0.16050000  1.0
  Li+  Li2  1  0.29600000  0.88400000  0.66050000  1.0
  Li+  Li2  1  0.62933333  0.88400000  0.66050000  1.0
  Li+  Li2  1  0.96266667  0.88400000  0.66050000  1.0
  Li+  Li2  1  0.12933333  0.88400000  0.83950000  1.0
  Li+  Li2  1  0.46266667  0.88400000  0.83950000  1.0
  Li+  Li2  1  0.79600000  0.88400000  0.83950000  1.0
  Li+  Li2  1  0.03733333  0.11600000  0.33950000  1.0
  Li+  Li2  1  0.37066667  0.11600000  0.33950000  1.0
  Li+  Li2  1  0.70400000  0.11600000  0.33950000  1.0
  Li+  Li3  1  0.25633333  0.02000000  0.42620000  1.0
  Li+  Li3  1  0.58966667  0.02000000  0.42620000  1.0
  Li+  Li3  1  0.92300000  0.02000000  0.42620000  1.0
  Li+  Li3  1  0.24366667  0.98000000  0.92620000  1.0
  Li+  Li3  1  0.57700000  0.98000000  0.92620000  1.0
  Li+  Li3  1  0.91033333  0.98000000  0.92620000  1.0
  Li+  Li3  1  0.07700000  0.98000000  0.57380000  1.0
  Li+  Li3  1  0.41033333  0.98000000  0.57380000  1.0
  Li+  Li3  1  0.74366667  0.98000000  0.57380000  1.0
  Li+  Li3  1  0.08966667  0.02000000  0.07380000  1.0
  Li+  Li3  1  0.42300000  0.02000000  0.07380000  1.0
  Li+  Li3  1  0.75633333  0.02000000  0.07380000  1.0
  Li+  Li4  1  0.21900000  0.15000000  0.66450000  1.0
  Li+  Li4  1  0.55233333  0.15000000  0.66450000  1.0
  Li+  Li4  1  0.88566667  0.15000000  0.66450000  1.0
  Li+  Li4  1  0.28100000  0.85000000  0.16450000  1.0
  Li+  Li4  1  0.61433333  0.85000000  0.16450000  1.0
  Li+  Li4  1  0.94766667  0.85000000  0.16450000  1.0
  Li+  Li4  1  0.11433333  0.85000000  0.33550000  1.0
  Li+  Li4  1  0.44766667  0.85000000  0.33550000  1.0
  Li+  Li4  1  0.78100000  0.85000000  0.33550000  1.0
  Li+  Li4  1  0.05233333  0.15000000  0.83550000  1.0
  Li+  Li4  1  0.38566667  0.15000000  0.83550000  1.0
  Li+  Li4  1  0.71900000  0.15000000  0.83550000  1.0
  Zn2+  Zn1  1  0.19776667  0.59380000  0.34330000  1.0
  Zn2+  Zn1  1  0.53110000  0.59380000  0.34330000  1.0
  Zn2+  Zn1  1  0.86443333  0.59380000  0.34330000  1.0
  Zn2+  Zn1  1  0.30223333  0.40620000  0.84330000  1.0
  Zn2+  Zn1  1  0.63556667  0.40620000  0.84330000  1.0
  Zn2+  Zn1  1  0.96890000  0.40620000  0.84330000  1.0
  Zn2+  Zn1  1  0.13556667  0.40620000  0.65670000  1.0
  Zn2+  Zn1  1  0.46890000  0.40620000  0.65670000  1.0
  Zn2+  Zn1  1  0.80223333  0.40620000  0.65670000  1.0
  Zn2+  Zn1  1  0.03110000  0.59380000  0.15670000  1.0
  Zn2+  Zn1  1  0.36443333  0.59380000  0.15670000  1.0
  Zn2+  Zn1  1  0.69776667  0.59380000  0.15670000  1.0
  P5+  P1  1  0.32420000  0.21250000  0.09210000  1.0
  P5+  P1  1  0.65753333  0.21250000  0.09210000  1.0
  P5+  P1  1  0.99086667  0.21250000  0.09210000  1.0
  P5+  P1  1  0.17580000  0.78750000  0.59210000  1.0
  P5+  P1  1  0.50913333  0.78750000  0.59210000  1.0
  P5+  P1  1  0.84246667  0.78750000  0.59210000  1.0
  P5+  P1  1  0.00913333  0.78750000  0.90790000  1.0
  P5+  P1  1  0.34246667  0.78750000  0.90790000  1.0
  P5+  P1  1  0.67580000  0.78750000  0.90790000  1.0
  P5+  P1  1  0.15753333  0.21250000  0.40790000  1.0
  P5+  P1  1  0.49086667  0.21250000  0.40790000  1.0
  P5+  P1  1  0.82420000  0.21250000  0.40790000  1.0
  P5+  P2  1  0.17843333  0.27060000  0.90840000  1.0
  P5+  P2  1  0.51176667  0.27060000  0.90840000  1.0
  P5+  P2  1  0.84510000  0.27060000  0.90840000  1.0
  P5+  P2  1  0.32156667  0.72940000  0.40840000  1.0
  P5+  P2  1  0.65490000  0.72940000  0.40840000  1.0
  P5+  P2  1  0.98823333  0.72940000  0.40840000  1.0
  P5+  P2  1  0.15490000  0.72940000  0.09160000  1.0
  P5+  P2  1  0.48823333  0.72940000  0.09160000  1.0
  P5+  P2  1  0.82156667  0.72940000  0.09160000  1.0
  P5+  P2  1  0.01176667  0.27060000  0.59160000  1.0
  P5+  P2  1  0.34510000  0.27060000  0.59160000  1.0
  P5+  P2  1  0.67843333  0.27060000  0.59160000  1.0
  O2-  O1  1  0.21043333  0.16280000  0.34950000  1.0
  O2-  O1  1  0.54376667  0.16280000  0.34950000  1.0
  O2-  O1  1  0.87710000  0.16280000  0.34950000  1.0
  O2-  O1  1  0.28956667  0.83720000  0.84950000  1.0
  O2-  O1  1  0.62290000  0.83720000  0.84950000  1.0
  O2-  O1  1  0.95623333  0.83720000  0.84950000  1.0
  O2-  O1  1  0.12290000  0.83720000  0.65050000  1.0
  O2-  O1  1  0.45623333  0.83720000  0.65050000  1.0
  O2-  O1  1  0.78956667  0.83720000  0.65050000  1.0
  O2-  O1  1  0.04376667  0.16280000  0.15050000  1.0
  O2-  O1  1  0.37710000  0.16280000  0.15050000  1.0
  O2-  O1  1  0.71043333  0.16280000  0.15050000  1.0
  O2-  O2  1  0.27050000  0.06200000  0.10080000  1.0
  O2-  O2  1  0.60383333  0.06200000  0.10080000  1.0
  O2-  O2  1  0.93716667  0.06200000  0.10080000  1.0
  O2-  O2  1  0.22950000  0.93800000  0.60080000  1.0
  O2-  O2  1  0.56283333  0.93800000  0.60080000  1.0
  O2-  O2  1  0.89616667  0.93800000  0.60080000  1.0
  O2-  O2  1  0.06283333  0.93800000  0.89920000  1.0
  O2-  O2  1  0.39616667  0.93800000  0.89920000  1.0
  O2-  O2  1  0.72950000  0.93800000  0.89920000  1.0
  O2-  O2  1  0.10383333  0.06200000  0.39920000  1.0
  O2-  O2  1  0.43716667  0.06200000  0.39920000  1.0
  O2-  O2  1  0.77050000  0.06200000  0.39920000  1.0
  O2-  O3  1  0.31260000  0.36140000  0.16720000  1.0
  O2-  O3  1  0.64593333  0.36140000  0.16720000  1.0
  O2-  O3  1  0.97926667  0.36140000  0.16720000  1.0
  O2-  O3  1  0.18740000  0.63860000  0.66720000  1.0
  O2-  O3  1  0.52073333  0.63860000  0.66720000  1.0
  O2-  O3  1  0.85406667  0.63860000  0.66720000  1.0
  O2-  O3  1  0.02073333  0.63860000  0.83280000  1.0
  O2-  O3  1  0.35406667  0.63860000  0.83280000  1.0
  O2-  O3  1  0.68740000  0.63860000  0.83280000  1.0
  O2-  O3  1  0.14593333  0.36140000  0.33280000  1.0
  O2-  O3  1  0.47926667  0.36140000  0.33280000  1.0
  O2-  O3  1  0.81260000  0.36140000  0.33280000  1.0
  O2-  O4  1  0.00153333  0.25180000  0.94510000  1.0
  O2-  O4  1  0.33486667  0.25180000  0.94510000  1.0
  O2-  O4  1  0.66820000  0.25180000  0.94510000  1.0
  O2-  O4  1  0.16513333  0.74820000  0.44510000  1.0
  O2-  O4  1  0.49846667  0.74820000  0.44510000  1.0
  O2-  O4  1  0.83180000  0.74820000  0.44510000  1.0
  O2-  O4  1  0.33180000  0.74820000  0.05490000  1.0
  O2-  O4  1  0.66513333  0.74820000  0.05490000  1.0
  O2-  O4  1  0.99846667  0.74820000  0.05490000  1.0
  O2-  O4  1  0.16820000  0.25180000  0.55490000  1.0
  O2-  O4  1  0.50153333  0.25180000  0.55490000  1.0
  O2-  O4  1  0.83486667  0.25180000  0.55490000  1.0
  O2-  O5  1  0.19626667  0.12300000  0.84640000  1.0
  O2-  O5  1  0.52960000  0.12300000  0.84640000  1.0
  O2-  O5  1  0.86293333  0.12300000  0.84640000  1.0
  O2-  O5  1  0.30373333  0.87700000  0.34640000  1.0
  O2-  O5  1  0.63706667  0.87700000  0.34640000  1.0
  O2-  O5  1  0.97040000  0.87700000  0.34640000  1.0
  O2-  O5  1  0.13706667  0.87700000  0.15360000  1.0
  O2-  O5  1  0.47040000  0.87700000  0.15360000  1.0
  O2-  O5  1  0.80373333  0.87700000  0.15360000  1.0
  O2-  O5  1  0.02960000  0.12300000  0.65360000  1.0
  O2-  O5  1  0.36293333  0.12300000  0.65360000  1.0
  O2-  O5  1  0.69626667  0.12300000  0.65360000  1.0
  O2-  O6  1  0.27090000  0.56880000  0.39830000  1.0
  O2-  O6  1  0.60423333  0.56880000  0.39830000  1.0
  O2-  O6  1  0.93756667  0.56880000  0.39830000  1.0
  O2-  O6  1  0.22910000  0.43120000  0.89830000  1.0
  O2-  O6  1  0.56243333  0.43120000  0.89830000  1.0
  O2-  O6  1  0.89576667  0.43120000  0.89830000  1.0
  O2-  O6  1  0.06243333  0.43120000  0.60170000  1.0
  O2-  O6  1  0.39576667  0.43120000  0.60170000  1.0
  O2-  O6  1  0.72910000  0.43120000  0.60170000  1.0
  O2-  O6  1  0.10423333  0.56880000  0.10170000  1.0
  O2-  O6  1  0.43756667  0.56880000  0.10170000  1.0
  O2-  O6  1  0.77090000  0.56880000  0.10170000  1.0
  O2-  O7  1  0.20506667  0.69260000  0.16920000  1.0
  O2-  O7  1  0.53840000  0.69260000  0.16920000  1.0
  O2-  O7  1  0.87173333  0.69260000  0.16920000  1.0
  O2-  O7  1  0.29493333  0.30740000  0.66920000  1.0
  O2-  O7  1  0.62826667  0.30740000  0.66920000  1.0
  O2-  O7  1  0.96160000  0.30740000  0.66920000  1.0
  O2-  O7  1  0.12826667  0.30740000  0.83080000  1.0
  O2-  O7  1  0.46160000  0.30740000  0.83080000  1.0
  O2-  O7  1  0.79493333  0.30740000  0.83080000  1.0
  O2-  O7  1  0.03840000  0.69260000  0.33080000  1.0
  O2-  O7  1  0.37173333  0.69260000  0.33080000  1.0
  O2-  O7  1  0.70506667  0.69260000  0.33080000  1.0
  O2-  O8  1  0.32563333  0.22490000  0.45350000  1.0
  O2-  O8  1  0.65896667  0.22490000  0.45350000  1.0
  O2-  O8  1  0.99230000  0.22490000  0.45350000  1.0
  O2-  O8  1  0.17436667  0.77510000  0.95350000  1.0
  O2-  O8  1  0.50770000  0.77510000  0.95350000  1.0
  O2-  O8  1  0.84103333  0.77510000  0.95350000  1.0
  O2-  O8  1  0.00770000  0.77510000  0.54650000  1.0
  O2-  O8  1  0.34103333  0.77510000  0.54650000  1.0
  O2-  O8  1  0.67436667  0.77510000  0.54650000  1.0
  O2-  O8  1  0.15896667  0.22490000  0.04650000  1.0
  O2-  O8  1  0.49230000  0.22490000  0.04650000  1.0
  O2-  O8  1  0.82563333  0.22490000  0.04650000  1.0
