# generated using pymatgen
data_Li14Nd5Si11N19O7F2
_symmetry_space_group_name_H-M   'P 1'
_cell_length_a   7.61550000
_cell_length_b   10.12300000
_cell_length_c   17.12600000
_cell_angle_alpha   90.00000000
_cell_angle_beta   90.00000000
_cell_angle_gamma   90.00000000
_symmetry_Int_Tables_number   1
_chemical_formula_structural   Li14Nd5Si11N19O7F2
_chemical_formula_sum   'Li28 Nd10 Si22 N38 O14 F4'
_cell_volume   1320.27256552
_cell_formula_units_Z   2
loop_
 _symmetry_equiv_pos_site_id
 _symmetry_equiv_pos_as_xyz
  1  'x, y, z'
loop_
 _atom_type_symbol
 _atom_type_oxidation_number
  Li+  1.0
  Nd3+  3.0
  Si4+  4.0
  N3-  -3.0
  O2-  -2.0
  F-  -1.0
loop_
 _atom_site_type_symbol
 _atom_site_label
 _atom_site_symmetry_multiplicity
 _atom_site_fract_x
 _atom_site_fract_y
 _atom_site_fract_z
 _atom_site_occupancy
  Li+  Li1  1  0.75000000  0.46000000  0.01100000  1.0
  Li+  Li1  1  0.75000000  0.46000000  0.48900000  1.0
  Li+  Li1  1  0.25000000  0.54000000  0.98900000  1.0
  Li+  Li1  1  0.25000000  0.54000000  0.51100000  1.0
  Li+  Li2  1  0.75000000  0.76400000  0.06920000  1.0
  Li+  Li2  1  0.75000000  0.76400000  0.43080000  1.0
  Li+  Li2  1  0.25000000  0.23600000  0.93080000  1.0
  Li+  Li2  1  0.25000000  0.23600000  0.56920000  1.0
  Li+  Li3  1  0.75000000  0.53900000  0.85500000  1.0
  Li+  Li3  1  0.75000000  0.53900000  0.64500000  1.0
  Li+  Li3  1  0.25000000  0.46100000  0.14500000  1.0
  Li+  Li3  1  0.25000000  0.46100000  0.35500000  1.0
  Li+  Li4  1  0.49300000  0.37700000  0.88930000  1.0
  Li+  Li4  1  0.49300000  0.37700000  0.61070000  1.0
  Li+  Li4  1  0.00700000  0.37700000  0.88930000  1.0
  Li+  Li4  1  0.00700000  0.37700000  0.61070000  1.0
  Li+  Li4  1  0.50700000  0.62300000  0.11070000  1.0
  Li+  Li4  1  0.50700000  0.62300000  0.38930000  1.0
  Li+  Li4  1  0.99300000  0.62300000  0.11070000  1.0
  Li+  Li4  1  0.99300000  0.62300000  0.38930000  1.0
  Li+  Li5  1  0.40000000  0.01800000  0.82320000  1.0
  Li+  Li5  1  0.40000000  0.01800000  0.67680000  1.0
  Li+  Li5  1  0.10000000  0.01800000  0.82320000  1.0
  Li+  Li5  1  0.10000000  0.01800000  0.67680000  1.0
  Li+  Li5  1  0.60000000  0.98200000  0.17680000  1.0
  Li+  Li5  1  0.60000000  0.98200000  0.32320000  1.0
  Li+  Li5  1  0.90000000  0.98200000  0.17680000  1.0
  Li+  Li5  1  0.90000000  0.98200000  0.32320000  1.0
  Nd3+  Nd1  1  0.25000000  0.82697000  0.25000000  1.0
  Nd3+  Nd1  1  0.75000000  0.17303000  0.75000000  1.0
  Nd3+  Nd2  1  0.50037000  0.27097000  0.25000000  1.0
  Nd3+  Nd2  1  0.99963000  0.27097000  0.25000000  1.0
  Nd3+  Nd2  1  0.49963000  0.72903000  0.75000000  1.0
  Nd3+  Nd2  1  0.00037000  0.72903000  0.75000000  1.0
  Nd3+  Nd3  1  0.50000000  0.00000000  0.00000000  1.0
  Nd3+  Nd3  1  0.50000000  0.00000000  0.50000000  1.0
  Nd3+  Nd3  1  0.00000000  0.00000000  0.00000000  1.0
  Nd3+  Nd3  1  0.00000000  0.00000000  0.50000000  1.0
  Si4+  Si1  1  0.75000000  0.73610000  0.25000000  1.0
  Si4+  Si1  1  0.25000000  0.26390000  0.75000000  1.0
  Si4+  Si2  1  0.75000000  0.47600000  0.15930000  1.0
  Si4+  Si2  1  0.75000000  0.47600000  0.34070000  1.0
  Si4+  Si2  1  0.25000000  0.52400000  0.84070000  1.0
  Si4+  Si2  1  0.25000000  0.52400000  0.65930000  1.0
  Si4+  Si3  1  0.25000000  0.08430000  0.14850000  1.0
  Si4+  Si3  1  0.25000000  0.08430000  0.35150000  1.0
  Si4+  Si3  1  0.75000000  0.91570000  0.85150000  1.0
  Si4+  Si3  1  0.75000000  0.91570000  0.64850000  1.0
  Si4+  Si4  1  0.45300000  0.30390000  0.06174000  1.0
  Si4+  Si4  1  0.45300000  0.30390000  0.43826000  1.0
  Si4+  Si4  1  0.04700000  0.30390000  0.06174000  1.0
  Si4+  Si4  1  0.04700000  0.30390000  0.43826000  1.0
  Si4+  Si4  1  0.54700000  0.69610000  0.93826000  1.0
  Si4+  Si4  1  0.54700000  0.69610000  0.56174000  1.0
  Si4+  Si4  1  0.95300000  0.69610000  0.93826000  1.0
  Si4+  Si4  1  0.95300000  0.69610000  0.56174000  1.0
  Si4+  Si5  1  0.25000000  0.77030000  0.07240000  1.0
  Si4+  Si5  1  0.25000000  0.77030000  0.42760000  1.0
  Si4+  Si5  1  0.75000000  0.22970000  0.92760000  1.0
  Si4+  Si5  1  0.75000000  0.22970000  0.57240000  1.0
  N3-  N1  1  0.55740000  0.83850000  0.88040000  1.0
  N3-  N1  1  0.55740000  0.83850000  0.61960000  1.0
  N3-  N1  1  0.94260000  0.83850000  0.88040000  1.0
  N3-  N1  1  0.94260000  0.83850000  0.61960000  1.0
  N3-  N1  1  0.44260000  0.16150000  0.11960000  1.0
  N3-  N1  1  0.44260000  0.16150000  0.38040000  1.0
  N3-  N1  1  0.05740000  0.16150000  0.11960000  1.0
  N3-  N1  1  0.05740000  0.16150000  0.38040000  1.0
  N3-  N2  1  0.25000000  0.36610000  0.03690000  1.0
  N3-  N2  1  0.25000000  0.36610000  0.46310000  1.0
  N3-  N2  1  0.75000000  0.63390000  0.96310000  1.0
  N3-  N2  1  0.75000000  0.63390000  0.53690000  1.0
  N3-  N3  1  0.75000000  0.92820000  0.75000000  1.0
  N3-  N3  1  0.25000000  0.07180000  0.25000000  1.0
  N3-  N4  1  0.25000000  0.93080000  0.10700000  1.0
  N3-  N4  1  0.25000000  0.93080000  0.39300000  1.0
  N3-  N4  1  0.75000000  0.06920000  0.89300000  1.0
  N3-  N4  1  0.75000000  0.06920000  0.60700000  1.0
  N3-  N5  1  0.75000000  0.64630000  0.16130000  1.0
  N3-  N5  1  0.75000000  0.64630000  0.33870000  1.0
  N3-  N5  1  0.25000000  0.35370000  0.83870000  1.0
  N3-  N5  1  0.25000000  0.35370000  0.66130000  1.0
  N3-  N6  1  0.56400000  0.42430000  0.11240000  1.0
  N3-  N6  1  0.56400000  0.42430000  0.38760000  1.0
  N3-  N6  1  0.93600000  0.42430000  0.11240000  1.0
  N3-  N6  1  0.93600000  0.42430000  0.38760000  1.0
  N3-  N6  1  0.43600000  0.57570000  0.88760000  1.0
  N3-  N6  1  0.43600000  0.57570000  0.61240000  1.0
  N3-  N6  1  0.06400000  0.57570000  0.88760000  1.0
  N3-  N6  1  0.06400000  0.57570000  0.61240000  1.0
  N3-  N7  1  0.55870000  0.25320000  0.97820000  1.0
  N3-  N7  1  0.55870000  0.25320000  0.52180000  1.0
  N3-  N7  1  0.94130000  0.25320000  0.97820000  1.0
  N3-  N7  1  0.94130000  0.25320000  0.52180000  1.0
  N3-  N7  1  0.44130000  0.74680000  0.02180000  1.0
  N3-  N7  1  0.44130000  0.74680000  0.47820000  1.0
  N3-  N7  1  0.05870000  0.74680000  0.02180000  1.0
  N3-  N7  1  0.05870000  0.74680000  0.47820000  1.0
  O2-  O1  1  0.25000000  0.59060000  0.75000000  1.0
  O2-  O1  1  0.75000000  0.40940000  0.25000000  1.0
  O2-  O2  1  0.75000000  0.33420000  0.85060000  1.0
  O2-  O2  1  0.75000000  0.33420000  0.64940000  1.0
  O2-  O2  1  0.25000000  0.66580000  0.14940000  1.0
  O2-  O2  1  0.25000000  0.66580000  0.35060000  1.0
  O2-  O3  1  0.57270000  0.83580000  0.25000000  1.0
  O2-  O3  1  0.92730000  0.83580000  0.25000000  1.0
  O2-  O3  1  0.42730000  0.16420000  0.75000000  1.0
  O2-  O3  1  0.07270000  0.16420000  0.75000000  1.0
  O2-  O108  1  0.75000000  0.96290000  0.42010000  1.0
  O2-  O109  1  0.25000000  0.03710000  0.92010000  1.0
  O2-  O110  1  0.75000000  0.59880000  0.75000000  1.0
  O2-  O111  1  0.25000000  0.40120000  0.25000000  1.0
  F-  F112  1  0.75000000  0.11150000  0.25000000  1.0
  F-  F113  1  0.25000000  0.88850000  0.75000000  1.0
  F-  F114  1  0.75000000  0.96290000  0.07990000  1.0
  F-  F115  1  0.25000000  0.03710000  0.57990000  1.0
