# generated using pymatgen
data_Li3Ti3Fe(PO4)6
_symmetry_space_group_name_H-M   'P 1'
_cell_length_a   17.06064634
_cell_length_b   17.06064634
_cell_length_c   8.53032317
_cell_angle_alpha   60.11456165
_cell_angle_beta   119.88543835
_cell_angle_gamma   119.88543835
_symmetry_Int_Tables_number   1
_chemical_formula_structural   Li3Ti3Fe(PO4)6
_chemical_formula_sum   'Li12 Ti12 Fe4 P24 O96'
_cell_volume   1760.22103170
_cell_formula_units_Z   4
loop_
 _symmetry_equiv_pos_site_id
 _symmetry_equiv_pos_as_xyz
  1  'x, y, z'
loop_
 _atom_type_symbol
 _atom_type_oxidation_number
  Li+  1.0
  Ti4+  4.0
  Fe3+  3.0
  P5+  5.0
  O2-  -2.0
loop_
 _atom_site_type_symbol
 _atom_site_label
 _atom_site_symmetry_multiplicity
 _atom_site_fract_x
 _atom_site_fract_y
 _atom_site_fract_z
 _atom_site_occupancy
  Li+  Li0  1  0.34150000  0.76700000  0.45000000  1.0
  Li+  Li1  1  0.34150000  0.26700000  0.45000000  1.0
  Li+  Li2  1  0.85000000  0.84150000  0.21600000  1.0
  Li+  Li3  1  0.84507502  0.34208525  0.21287548  1.0
  Li+  Li4  1  0.17755044  0.91141424  0.97212352  1.0
  Li+  Li5  1  0.17825460  0.41367487  0.96720070  1.0
  Li+  Li6  1  0.63860000  0.66390000  0.89380000  1.0
  Li+  Li7  1  0.63860000  0.16390000  0.89380000  1.0
  Li+  Li8  1  0.41390000  0.88860000  0.10620000  1.0
  Li+  Li9  1  0.41552811  0.39286272  0.10979495  1.0
  Li+  Li10  1  0.50234797  0.99721554  0.74781395  1.0
  Li+  Li11  1  0.50000000  0.50000000  0.75000000  1.0
  Ti4+  Ti12  1  0.17750000  0.82250000  0.39500000  1.0
  Ti4+  Ti13  1  0.17851982  0.32171441  0.39221366  1.0
  Ti4+  Ti14  1  0.67750000  0.82250000  0.39500000  1.0
  Ti4+  Ti15  1  0.67750000  0.32250000  0.39500000  1.0
  Ti4+  Ti16  1  0.92781526  0.57197441  0.89687221  1.0
  Ti4+  Ti17  1  0.92750000  0.07250000  0.89500000  1.0
  Ti4+  Ti18  1  0.32250000  0.67750000  0.10500000  1.0
  Ti4+  Ti19  1  0.32250000  0.17750000  0.10500000  1.0
  Ti4+  Ti20  1  0.82250000  0.67750000  0.10500000  1.0
  Ti4+  Ti21  1  0.82250000  0.17750000  0.10500000  1.0
  Ti4+  Ti22  1  0.07250000  0.92750000  0.60500000  1.0
  Ti4+  Ti23  1  0.07250000  0.42750000  0.60500000  1.0
  Fe3+  Fe24  1  0.42750000  0.57250000  0.89500000  1.0
  Fe3+  Fe25  1  0.43316712  0.07373089  0.89474884  1.0
  Fe3+  Fe26  1  0.57250000  0.92750000  0.60500000  1.0
  Fe3+  Fe27  1  0.57388061  0.42772275  0.60566579  1.0
  P5+  P28  1  0.27040000  0.87500000  0.79080000  1.0
  P5+  P29  1  0.27040000  0.37500000  0.79080000  1.0
  P5+  P30  1  0.77040000  0.87500000  0.79080000  1.0
  P5+  P31  1  0.77040000  0.37500000  0.79080000  1.0
  P5+  P32  1  0.47960000  0.72960000  0.50000000  1.0
  P5+  P33  1  0.47687958  0.23168683  0.49975455  1.0
  P5+  P34  1  0.97991030  0.73058337  0.50043250  1.0
  P5+  P35  1  0.97960000  0.22960000  0.50000000  1.0
  P5+  P36  1  0.12500000  0.52040000  0.20920000  1.0
  P5+  P37  1  0.12051808  0.01854948  0.20663511  1.0
  P5+  P38  1  0.62224603  0.52003873  0.20864939  1.0
  P5+  P39  1  0.62500000  0.02040000  0.20920000  1.0
  P5+  P40  1  0.02040000  0.77040000  0.00000000  1.0
  P5+  P41  1  0.02040000  0.27040000  0.00000000  1.0
  P5+  P42  1  0.52040000  0.77040000  0.00000000  1.0
  P5+  P43  1  0.52040000  0.27040000  0.00000000  1.0
  P5+  P44  1  0.37500000  0.97960000  0.29080000  1.0
  P5+  P45  1  0.37500000  0.47960000  0.29080000  1.0
  P5+  P46  1  0.87234812  0.98146721  0.29256511  1.0
  P5+  P47  1  0.87500000  0.47960000  0.29080000  1.0
  P5+  P48  1  0.22960000  0.62500000  0.70920000  1.0
  P5+  P49  1  0.22960000  0.12500000  0.70920000  1.0
  P5+  P50  1  0.73121973  0.62489900  0.71080413  1.0
  P5+  P51  1  0.72657816  0.12557759  0.71297296  1.0
  O2-  O52  1  0.24996500  0.84753500  0.62627000  1.0
  O2-  O53  1  0.24743811  0.34636072  0.62304208  1.0
  O2-  O54  1  0.74996500  0.84753500  0.62627000  1.0
  O2-  O55  1  0.74996500  0.34753500  0.62627000  1.0
  O2-  O56  1  0.06010227  0.75073520  0.44383709  1.0
  O2-  O57  1  0.06186500  0.25003500  0.44507000  1.0
  O2-  O58  1  0.56186500  0.75003500  0.44507000  1.0
  O2-  O59  1  0.56186500  0.25003500  0.44507000  1.0
  O2-  O60  1  0.15246500  0.93813500  0.25007000  1.0
  O2-  O61  1  0.15246500  0.43813500  0.25007000  1.0
  O2-  O62  1  0.65246500  0.93813500  0.25007000  1.0
  O2-  O63  1  0.65246500  0.43813500  0.25007000  1.0
  O2-  O64  1  0.49996500  0.68813500  0.94507000  1.0
  O2-  O65  1  0.49996500  0.18813500  0.94507000  1.0
  O2-  O66  1  0.99996500  0.68813500  0.94507000  1.0
  O2-  O67  1  0.99996500  0.18813500  0.94507000  1.0
  O2-  O68  1  0.40246500  0.50003500  0.12627000  1.0
  O2-  O69  1  0.40038500  0.00502869  0.12399749  1.0
  O2-  O70  1  0.90246500  0.50003500  0.12627000  1.0
  O2-  O71  1  0.90198244  0.00300175  0.12503916  1.0
  O2-  O72  1  0.31186500  0.59753500  0.75007000  1.0
  O2-  O73  1  0.31186500  0.09753500  0.75007000  1.0
  O2-  O74  1  0.81345464  0.59646170  0.74911742  1.0
  O2-  O75  1  0.81186500  0.09753500  0.75007000  1.0
  O2-  O76  1  0.25003500  0.65246500  0.87373000  1.0
  O2-  O77  1  0.25003500  0.15246500  0.87373000  1.0
  O2-  O78  1  0.75003500  0.65246500  0.87373000  1.0
  O2-  O79  1  0.75003500  0.15246500  0.87373000  1.0
  O2-  O80  1  0.43813500  0.74996500  0.05493000  1.0
  O2-  O81  1  0.43813500  0.24996500  0.05493000  1.0
  O2-  O82  1  0.93834072  0.75432700  0.05428838  1.0
  O2-  O83  1  0.93337328  0.25070650  0.05455191  1.0
  O2-  O84  1  0.34609193  0.56326861  0.25234525  1.0
  O2-  O85  1  0.34753500  0.06186500  0.24993000  1.0
  O2-  O86  1  0.84753500  0.56186500  0.24993000  1.0
  O2-  O87  1  0.84753500  0.06186500  0.24993000  1.0
  O2-  O88  1  0.00003500  0.81186500  0.55493000  1.0
  O2-  O89  1  0.00003500  0.31186500  0.55493000  1.0
  O2-  O90  1  0.50003500  0.81186500  0.55493000  1.0
  O2-  O91  1  0.50003500  0.31186500  0.55493000  1.0
  O2-  O92  1  0.09753500  0.99996500  0.37373000  1.0
  O2-  O93  1  0.09753500  0.49996500  0.37373000  1.0
  O2-  O94  1  0.59753500  0.99996500  0.37373000  1.0
  O2-  O95  1  0.59753500  0.49996500  0.37373000  1.0
  O2-  O96  1  0.18813500  0.90246500  0.74993000  1.0
  O2-  O97  1  0.18549336  0.40851102  0.75040576  1.0
  O2-  O98  1  0.68522913  0.90003072  0.75219639  1.0
  O2-  O99  1  0.68813500  0.40246500  0.74993000  1.0
  O2-  O100  1  0.22137000  0.70788000  0.52136000  1.0
  O2-  O101  1  0.22137000  0.20788000  0.52136000  1.0
  O2-  O102  1  0.72137000  0.70788000  0.52136000  1.0
  O2-  O103  1  0.72137000  0.20788000  0.52136000  1.0
  O2-  O104  1  0.11851438  0.77927798  0.16577799  1.0
  O2-  O105  1  0.11432000  0.27863000  0.16576000  1.0
  O2-  O106  1  0.61432000  0.77863000  0.16576000  1.0
  O2-  O107  1  0.61432000  0.27863000  0.16576000  1.0
  O2-  O108  1  0.29212000  0.88568000  0.30726000  1.0
  O2-  O109  1  0.29212000  0.38568000  0.30726000  1.0
  O2-  O110  1  0.79212000  0.88568000  0.30726000  1.0
  O2-  O111  1  0.79212000  0.38568000  0.30726000  1.0
  O2-  O112  1  0.47137000  0.63568000  0.66576000  1.0
  O2-  O113  1  0.47137000  0.13568000  0.66576000  1.0
  O2-  O114  1  0.97137000  0.63568000  0.66576000  1.0
  O2-  O115  1  0.97137000  0.13568000  0.66576000  1.0
  O2-  O116  1  0.04092614  0.53058598  0.02231987  1.0
  O2-  O117  1  0.04212000  0.02863000  0.02136000  1.0
  O2-  O118  1  0.54212000  0.52863000  0.02136000  1.0
  O2-  O119  1  0.54384146  0.02556660  0.02157826  1.0
  O2-  O120  1  0.36368186  0.96094354  0.80798643  1.0
  O2-  O121  1  0.36432000  0.45788000  0.80726000  1.0
  O2-  O122  1  0.86604474  0.95774936  0.80795465  1.0
  O2-  O123  1  0.86432000  0.45788000  0.80726000  1.0
  O2-  O124  1  0.27863000  0.79212000  0.97864000  1.0
  O2-  O125  1  0.27863000  0.29212000  0.97864000  1.0
  O2-  O126  1  0.78215531  0.79060772  0.97778442  1.0
  O2-  O127  1  0.77863000  0.29212000  0.97864000  1.0
  O2-  O128  1  0.39021958  0.72174495  0.33673592  1.0
  O2-  O129  1  0.38568000  0.22137000  0.33424000  1.0
  O2-  O130  1  0.88568000  0.72137000  0.33424000  1.0
  O2-  O131  1  0.88568000  0.22137000  0.33424000  1.0
  O2-  O132  1  0.20788000  0.61432000  0.19274000  1.0
  O2-  O133  1  0.20207742  0.10878437  0.19007068  1.0
  O2-  O134  1  0.70788000  0.61432000  0.19274000  1.0
  O2-  O135  1  0.70788000  0.11432000  0.19274000  1.0
  O2-  O136  1  0.02789787  0.86523022  0.83796295  1.0
  O2-  O137  1  0.02863000  0.36432000  0.83424000  1.0
  O2-  O138  1  0.52863000  0.86432000  0.83424000  1.0
  O2-  O139  1  0.52863000  0.36432000  0.83424000  1.0
  O2-  O140  1  0.45788000  0.97137000  0.47864000  1.0
  O2-  O141  1  0.45788000  0.47137000  0.47864000  1.0
  O2-  O142  1  0.95788000  0.97137000  0.47864000  1.0
  O2-  O143  1  0.95788000  0.47137000  0.47864000  1.0
  O2-  O144  1  0.13417807  0.54182824  0.68822866  1.0
  O2-  O145  1  0.13568000  0.04212000  0.69274000  1.0
  O2-  O146  1  0.63568000  0.54212000  0.69274000  1.0
  O2-  O147  1  0.63561115  0.04443167  0.69664157  1.0
