# generated using pymatgen
data_Li3Ti3Fe(PO4)6
_symmetry_space_group_name_H-M   'P 1'
_cell_length_a   8.53301710
_cell_length_b   17.06603421
_cell_length_c   17.06603421
_cell_angle_alpha   119.88543835
_cell_angle_beta   119.88543835
_cell_angle_gamma   60.11456165
_symmetry_Int_Tables_number   1
_chemical_formula_structural   Li3Ti3Fe(PO4)6
_chemical_formula_sum   'Li12 Ti12 Fe4 P24 O96'
_cell_volume   1761.88922728
_cell_formula_units_Z   4
loop_
 _symmetry_equiv_pos_site_id
 _symmetry_equiv_pos_as_xyz
  1  'x, y, z'
loop_
 _atom_type_symbol
 _atom_type_oxidation_number
  Li+  1.0
  Ti4+  4.0
  Fe3+  3.0
  P5+  5.0
  O2-  -2.0
loop_
 _atom_site_type_symbol
 _atom_site_label
 _atom_site_symmetry_multiplicity
 _atom_site_fract_x
 _atom_site_fract_y
 _atom_site_fract_z
 _atom_site_occupancy
  Li+  Li0  1  0.70000000  0.32516667  0.23300000  1.0
  Li+  Li1  1  0.70000000  0.32516667  0.73300000  1.0
  Li+  Li2  1  0.46600000  0.81666667  0.15850000  1.0
  Li+  Li3  1  0.46600000  0.81666667  0.65850000  1.0
  Li+  Li4  1  0.22280000  0.48856667  0.08610000  1.0
  Li+  Li5  1  0.22280000  0.48856667  0.58610000  1.0
  Li+  Li6  1  0.14380000  0.02806667  0.33610000  1.0
  Li+  Li7  1  0.14380000  0.02806667  0.83610000  1.0
  Li+  Li8  1  0.35620000  0.25276667  0.11140000  1.0
  Li+  Li9  1  0.35620000  0.25276667  0.61140000  1.0
  Li+  Li10  1  0.00000000  0.16666667  0.00000000  1.0
  Li+  Li11  1  0.00000000  0.16666667  0.50000000  1.0
  Ti4+  Ti12  1  0.64500000  0.48916667  0.17750000  1.0
  Ti4+  Ti13  1  0.64500000  0.48916667  0.67750000  1.0
  Ti4+  Ti14  1  0.64500000  0.98916667  0.17750000  1.0
  Ti4+  Ti15  1  0.64500000  0.98916667  0.67750000  1.0
  Ti4+  Ti16  1  0.14500000  0.73916667  0.42750000  1.0
  Ti4+  Ti17  1  0.14500000  0.73916667  0.92750000  1.0
  Ti4+  Ti18  1  0.35500000  0.34416667  0.32250000  1.0
  Ti4+  Ti19  1  0.35500000  0.34416667  0.82250000  1.0
  Ti4+  Ti20  1  0.35500000  0.84416667  0.32250000  1.0
  Ti4+  Ti21  1  0.35500000  0.84416667  0.82250000  1.0
  Ti4+  Ti22  1  0.85500000  0.59416667  0.07250000  1.0
  Ti4+  Ti23  1  0.85500000  0.59416667  0.57250000  1.0
  Fe3+  Fe24  1  0.14500000  0.23916667  0.42750000  1.0
  Fe3+  Fe25  1  0.14500000  0.23916667  0.92750000  1.0
  Fe3+  Fe26  1  0.85500000  0.09416667  0.07250000  1.0
  Fe3+  Fe27  1  0.85500000  0.09416667  0.57250000  1.0
  P5+  P28  1  0.04080000  0.39626667  0.12500000  1.0
  P5+  P29  1  0.04080000  0.39626667  0.62500000  1.0
  P5+  P30  1  0.04080000  0.89626667  0.12500000  1.0
  P5+  P31  1  0.04080000  0.89626667  0.62500000  1.0
  P5+  P32  1  0.75000000  0.18706667  0.27040000  1.0
  P5+  P33  1  0.75000000  0.18706667  0.77040000  1.0
  P5+  P34  1  0.75000000  0.68706667  0.27040000  1.0
  P5+  P35  1  0.75000000  0.68706667  0.77040000  1.0
  P5+  P36  1  0.45920000  0.54166667  0.47960000  1.0
  P5+  P37  1  0.45920000  0.54166667  0.97960000  1.0
  P5+  P38  1  0.45920000  0.04166667  0.47960000  1.0
  P5+  P39  1  0.45920000  0.04166667  0.97960000  1.0
  P5+  P40  1  0.25000000  0.64626667  0.22960000  1.0
  P5+  P41  1  0.25000000  0.64626667  0.72960000  1.0
  P5+  P42  1  0.25000000  0.14626667  0.22960000  1.0
  P5+  P43  1  0.25000000  0.14626667  0.72960000  1.0
  P5+  P44  1  0.54080000  0.29166667  0.02040000  1.0
  P5+  P45  1  0.54080000  0.29166667  0.52040000  1.0
  P5+  P46  1  0.54080000  0.79166667  0.02040000  1.0
  P5+  P47  1  0.54080000  0.79166667  0.52040000  1.0
  P5+  P48  1  0.95920000  0.43706667  0.37500000  1.0
  P5+  P49  1  0.95920000  0.43706667  0.87500000  1.0
  P5+  P50  1  0.95920000  0.93706667  0.37500000  1.0
  P5+  P51  1  0.95920000  0.93706667  0.87500000  1.0
  O2-  O52  1  0.87627000  0.41670167  0.15246500  1.0
  O2-  O53  1  0.87627000  0.41670167  0.65246500  1.0
  O2-  O54  1  0.87627000  0.91670167  0.15246500  1.0
  O2-  O55  1  0.87627000  0.91670167  0.65246500  1.0
  O2-  O56  1  0.69507000  0.60480167  0.24996500  1.0
  O2-  O57  1  0.69507000  0.60480167  0.74996500  1.0
  O2-  O58  1  0.69507000  0.10480167  0.24996500  1.0
  O2-  O59  1  0.69507000  0.10480167  0.74996500  1.0
  O2-  O60  1  0.50007000  0.51420167  0.06186500  1.0
  O2-  O61  1  0.50007000  0.51420167  0.56186500  1.0
  O2-  O62  1  0.50007000  0.01420167  0.06186500  1.0
  O2-  O63  1  0.50007000  0.01420167  0.56186500  1.0
  O2-  O64  1  0.19507000  0.16670167  0.31186500  1.0
  O2-  O65  1  0.19507000  0.16670167  0.81186500  1.0
  O2-  O66  1  0.19507000  0.66666667  0.31186500  1.0
  O2-  O67  1  0.19507000  0.66666667  0.81186500  1.0
  O2-  O68  1  0.37627000  0.26420167  0.49996500  1.0
  O2-  O69  1  0.37627000  0.26420167  0.99996500  1.0
  O2-  O70  1  0.37627000  0.76420167  0.49996500  1.0
  O2-  O71  1  0.37627000  0.76420167  0.99996500  1.0
  O2-  O72  1  0.00007000  0.35480167  0.40246500  1.0
  O2-  O73  1  0.00007000  0.35480167  0.90246500  1.0
  O2-  O74  1  0.00007000  0.85480167  0.40246500  1.0
  O2-  O75  1  0.00007000  0.85480167  0.90246500  1.0
  O2-  O76  1  0.12373000  0.41663167  0.34753500  1.0
  O2-  O77  1  0.12373000  0.41663167  0.84753500  1.0
  O2-  O78  1  0.12373000  0.91663167  0.34753500  1.0
  O2-  O79  1  0.12373000  0.91663167  0.84753500  1.0
  O2-  O80  1  0.30493000  0.22853167  0.25003500  1.0
  O2-  O81  1  0.30493000  0.22853167  0.75003500  1.0
  O2-  O82  1  0.30493000  0.72853167  0.25003500  1.0
  O2-  O83  1  0.30493000  0.72853167  0.75003500  1.0
  O2-  O84  1  0.49993000  0.31913167  0.43813500  1.0
  O2-  O85  1  0.49993000  0.31913167  0.93813500  1.0
  O2-  O86  1  0.49993000  0.81913167  0.43813500  1.0
  O2-  O87  1  0.49993000  0.81913167  0.93813500  1.0
  O2-  O88  1  0.80493000  0.66666667  0.18813500  1.0
  O2-  O89  1  0.80493000  0.66666667  0.68813500  1.0
  O2-  O90  1  0.80493000  0.16663167  0.18813500  1.0
  O2-  O91  1  0.80493000  0.16663167  0.68813500  1.0
  O2-  O92  1  0.62373000  0.56913167  0.00003500  1.0
  O2-  O93  1  0.62373000  0.56913167  0.50003500  1.0
  O2-  O94  1  0.62373000  0.06913167  0.00003500  1.0
  O2-  O95  1  0.62373000  0.06913167  0.50003500  1.0
  O2-  O96  1  0.99993000  0.47853167  0.09753500  1.0
  O2-  O97  1  0.99993000  0.47853167  0.59753500  1.0
  O2-  O98  1  0.99993000  0.97853167  0.09753500  1.0
  O2-  O99  1  0.99993000  0.97853167  0.59753500  1.0
  O2-  O100  1  0.77136000  0.44529667  0.29212000  1.0
  O2-  O101  1  0.77136000  0.44529667  0.79212000  1.0
  O2-  O102  1  0.77136000  0.94529667  0.29212000  1.0
  O2-  O103  1  0.77136000  0.94529667  0.79212000  1.0
  O2-  O104  1  0.41576000  0.55234667  0.22137000  1.0
  O2-  O105  1  0.41576000  0.55234667  0.72137000  1.0
  O2-  O106  1  0.41576000  0.05234667  0.22137000  1.0
  O2-  O107  1  0.41576000  0.05234667  0.72137000  1.0
  O2-  O108  1  0.55726000  0.37454667  0.11432000  1.0
  O2-  O109  1  0.55726000  0.37454667  0.61432000  1.0
  O2-  O110  1  0.55726000  0.87454667  0.11432000  1.0
  O2-  O111  1  0.55726000  0.87454667  0.61432000  1.0
  O2-  O112  1  0.91576000  0.19529667  0.36432000  1.0
  O2-  O113  1  0.91576000  0.19529667  0.86432000  1.0
  O2-  O114  1  0.91576000  0.69529667  0.36432000  1.0
  O2-  O115  1  0.91576000  0.69529667  0.86432000  1.0
  O2-  O116  1  0.27136000  0.62454667  0.47137000  1.0
  O2-  O117  1  0.27136000  0.62454667  0.97137000  1.0
  O2-  O118  1  0.27136000  0.12454667  0.47137000  1.0
  O2-  O119  1  0.27136000  0.12454667  0.97137000  1.0
  O2-  O120  1  0.05726000  0.30234667  0.04212000  1.0
  O2-  O121  1  0.05726000  0.30234667  0.54212000  1.0
  O2-  O122  1  0.05726000  0.80234667  0.04212000  1.0
  O2-  O123  1  0.05726000  0.80234667  0.54212000  1.0
  O2-  O124  1  0.22864000  0.38803667  0.20788000  1.0
  O2-  O125  1  0.22864000  0.38803667  0.70788000  1.0
  O2-  O126  1  0.22864000  0.88803667  0.20788000  1.0
  O2-  O127  1  0.22864000  0.88803667  0.70788000  1.0
  O2-  O128  1  0.58424000  0.28098667  0.27863000  1.0
  O2-  O129  1  0.58424000  0.28098667  0.77863000  1.0
  O2-  O130  1  0.58424000  0.78098667  0.27863000  1.0
  O2-  O131  1  0.58424000  0.78098667  0.77863000  1.0
  O2-  O132  1  0.44274000  0.45878667  0.38568000  1.0
  O2-  O133  1  0.44274000  0.45878667  0.88568000  1.0
  O2-  O134  1  0.44274000  0.95878667  0.38568000  1.0
  O2-  O135  1  0.44274000  0.95878667  0.88568000  1.0
  O2-  O136  1  0.08424000  0.63803667  0.13568000  1.0
  O2-  O137  1  0.08424000  0.63803667  0.63568000  1.0
  O2-  O138  1  0.08424000  0.13803667  0.13568000  1.0
  O2-  O139  1  0.08424000  0.13803667  0.63568000  1.0
  O2-  O140  1  0.72864000  0.20878667  0.02863000  1.0
  O2-  O141  1  0.72864000  0.20878667  0.52863000  1.0
  O2-  O142  1  0.72864000  0.70878667  0.02863000  1.0
  O2-  O143  1  0.72864000  0.70878667  0.52863000  1.0
  O2-  O144  1  0.94274000  0.53098667  0.45788000  1.0
  O2-  O145  1  0.94274000  0.53098667  0.95788000  1.0
  O2-  O146  1  0.94274000  0.03098667  0.45788000  1.0
  O2-  O147  1  0.94274000  0.03098667  0.95788000  1.0
