# generated using pymatgen
data_Li3Ti3Fe(PO4)6
_symmetry_space_group_name_H-M   'P 1'
_cell_length_a   17.06064634
_cell_length_b   8.53032317
_cell_length_c   17.06064634
_cell_angle_alpha   60.11456165
_cell_angle_beta   60.11456165
_cell_angle_gamma   60.11456165
_symmetry_Int_Tables_number   1
_chemical_formula_structural   Li3Ti3Fe(PO4)6
_chemical_formula_sum   'Li12 Ti12 Fe4 P24 O96'
_cell_volume   1760.22103170
_cell_formula_units_Z   4
loop_
 _symmetry_equiv_pos_site_id
 _symmetry_equiv_pos_as_xyz
  1  'x, y, z'
loop_
 _atom_type_symbol
 _atom_type_oxidation_number
  Li+  1.0
  Ti4+  4.0
  Fe3+  3.0
  P5+  5.0
  O2-  -2.0
loop_
 _atom_site_type_symbol
 _atom_site_label
 _atom_site_symmetry_multiplicity
 _atom_site_fract_x
 _atom_site_fract_y
 _atom_site_fract_z
 _atom_site_occupancy
  Li+  Li0  1  0.34150000  0.30000000  0.23300000  1.0
  Li+  Li0  1  0.34150000  0.30000000  0.73300000  1.0
  Li+  Li1  1  0.85000000  0.53400000  0.15850000  1.0
  Li+  Li1  1  0.85000000  0.53400000  0.65850000  1.0
  Li+  Li2  1  0.17810000  0.77720000  0.08610000  1.0
  Li+  Li2  1  0.17810000  0.77720000  0.58610000  1.0
  Li+  Li3  1  0.63860000  0.85620000  0.33610000  1.0
  Li+  Li3  1  0.63860000  0.85620000  0.83610000  1.0
  Li+  Li4  1  0.41390000  0.64380000  0.11140000  1.0
  Li+  Li4  1  0.41390000  0.64380000  0.61140000  1.0
  Li+  Li5  1  0.50000000  0.00000000  0.00000000  1.0
  Li+  Li5  1  0.50000000  0.00000000  0.50000000  1.0
  Ti4+  Ti6  1  0.17750000  0.35500000  0.17750000  1.0
  Ti4+  Ti6  1  0.17750000  0.35500000  0.67750000  1.0
  Ti4+  Ti7  1  0.67750000  0.35500000  0.17750000  1.0
  Ti4+  Ti7  1  0.67750000  0.35500000  0.67750000  1.0
  Ti4+  Ti8  1  0.92750000  0.85500000  0.42750000  1.0
  Ti4+  Ti8  1  0.92750000  0.85500000  0.92750000  1.0
  Ti4+  Ti9  1  0.32250000  0.64500000  0.32250000  1.0
  Ti4+  Ti9  1  0.32250000  0.64500000  0.82250000  1.0
  Ti4+  Ti10  1  0.82250000  0.64500000  0.32250000  1.0
  Ti4+  Ti10  1  0.82250000  0.64500000  0.82250000  1.0
  Ti4+  Ti11  1  0.07250000  0.14500000  0.07250000  1.0
  Ti4+  Ti11  1  0.07250000  0.14500000  0.57250000  1.0
  Fe3+  Fe12  1  0.42750000  0.85500000  0.42750000  1.0
  Fe3+  Fe12  1  0.42750000  0.85500000  0.92750000  1.0
  Fe3+  Fe13  1  0.57250000  0.14500000  0.07250000  1.0
  Fe3+  Fe13  1  0.57250000  0.14500000  0.57250000  1.0
  P5+  P1  1  0.27040000  0.95920000  0.12500000  1.0
  P5+  P1  1  0.27040000  0.95920000  0.62500000  1.0
  P5+  P1  1  0.77040000  0.95920000  0.12500000  1.0
  P5+  P1  1  0.77040000  0.95920000  0.62500000  1.0
  P5+  P1  1  0.47960000  0.25000000  0.27040000  1.0
  P5+  P1  1  0.47960000  0.25000000  0.77040000  1.0
  P5+  P1  1  0.97960000  0.25000000  0.27040000  1.0
  P5+  P1  1  0.97960000  0.25000000  0.77040000  1.0
  P5+  P1  1  0.12500000  0.54080000  0.47960000  1.0
  P5+  P1  1  0.12500000  0.54080000  0.97960000  1.0
  P5+  P1  1  0.62500000  0.54080000  0.47960000  1.0
  P5+  P1  1  0.62500000  0.54080000  0.97960000  1.0
  P5+  P1  1  0.02040000  0.75000000  0.22960000  1.0
  P5+  P1  1  0.02040000  0.75000000  0.72960000  1.0
  P5+  P1  1  0.52040000  0.75000000  0.22960000  1.0
  P5+  P1  1  0.52040000  0.75000000  0.72960000  1.0
  P5+  P1  1  0.37500000  0.45920000  0.02040000  1.0
  P5+  P1  1  0.37500000  0.45920000  0.52040000  1.0
  P5+  P1  1  0.87500000  0.45920000  0.02040000  1.0
  P5+  P1  1  0.87500000  0.45920000  0.52040000  1.0
  P5+  P1  1  0.22960000  0.04080000  0.37500000  1.0
  P5+  P1  1  0.22960000  0.04080000  0.87500000  1.0
  P5+  P1  1  0.72960000  0.04080000  0.37500000  1.0
  P5+  P1  1  0.72960000  0.04080000  0.87500000  1.0
  O2-  O1  1  0.24996500  0.12373000  0.15246500  1.0
  O2-  O1  1  0.24996500  0.12373000  0.65246500  1.0
  O2-  O1  1  0.74996500  0.12373000  0.15246500  1.0
  O2-  O1  1  0.74996500  0.12373000  0.65246500  1.0
  O2-  O1  1  0.06186500  0.30493000  0.24996500  1.0
  O2-  O1  1  0.06186500  0.30493000  0.74996500  1.0
  O2-  O1  1  0.56186500  0.30493000  0.24996500  1.0
  O2-  O1  1  0.56186500  0.30493000  0.74996500  1.0
  O2-  O1  1  0.15246500  0.49993000  0.06186500  1.0
  O2-  O1  1  0.15246500  0.49993000  0.56186500  1.0
  O2-  O1  1  0.65246500  0.49993000  0.06186500  1.0
  O2-  O1  1  0.65246500  0.49993000  0.56186500  1.0
  O2-  O1  1  0.49996500  0.80493000  0.31186500  1.0
  O2-  O1  1  0.49996500  0.80493000  0.81186500  1.0
  O2-  O1  1  0.99996500  0.80493000  0.31186500  1.0
  O2-  O1  1  0.99996500  0.80493000  0.81186500  1.0
  O2-  O1  1  0.40246500  0.62373000  0.49996500  1.0
  O2-  O1  1  0.40246500  0.62373000  0.99996500  1.0
  O2-  O1  1  0.90246500  0.62373000  0.49996500  1.0
  O2-  O1  1  0.90246500  0.62373000  0.99996500  1.0
  O2-  O1  1  0.31186500  0.99993000  0.40246500  1.0
  O2-  O1  1  0.31186500  0.99993000  0.90246500  1.0
  O2-  O1  1  0.81186500  0.99993000  0.40246500  1.0
  O2-  O1  1  0.81186500  0.99993000  0.90246500  1.0
  O2-  O1  1  0.25003500  0.87627000  0.34753500  1.0
  O2-  O1  1  0.25003500  0.87627000  0.84753500  1.0
  O2-  O1  1  0.75003500  0.87627000  0.34753500  1.0
  O2-  O1  1  0.75003500  0.87627000  0.84753500  1.0
  O2-  O1  1  0.43813500  0.69507000  0.25003500  1.0
  O2-  O1  1  0.43813500  0.69507000  0.75003500  1.0
  O2-  O1  1  0.93813500  0.69507000  0.25003500  1.0
  O2-  O1  1  0.93813500  0.69507000  0.75003500  1.0
  O2-  O1  1  0.34753500  0.50007000  0.43813500  1.0
  O2-  O1  1  0.34753500  0.50007000  0.93813500  1.0
  O2-  O1  1  0.84753500  0.50007000  0.43813500  1.0
  O2-  O1  1  0.84753500  0.50007000  0.93813500  1.0
  O2-  O1  1  0.00003500  0.19507000  0.18813500  1.0
  O2-  O1  1  0.00003500  0.19507000  0.68813500  1.0
  O2-  O1  1  0.50003500  0.19507000  0.18813500  1.0
  O2-  O1  1  0.50003500  0.19507000  0.68813500  1.0
  O2-  O1  1  0.09753500  0.37627000  0.00003500  1.0
  O2-  O1  1  0.09753500  0.37627000  0.50003500  1.0
  O2-  O1  1  0.59753500  0.37627000  0.00003500  1.0
  O2-  O1  1  0.59753500  0.37627000  0.50003500  1.0
  O2-  O1  1  0.18813500  0.00007000  0.09753500  1.0
  O2-  O1  1  0.18813500  0.00007000  0.59753500  1.0
  O2-  O1  1  0.68813500  0.00007000  0.09753500  1.0
  O2-  O1  1  0.68813500  0.00007000  0.59753500  1.0
  O2-  O2  1  0.22137000  0.22864000  0.29212000  1.0
  O2-  O2  1  0.22137000  0.22864000  0.79212000  1.0
  O2-  O2  1  0.72137000  0.22864000  0.29212000  1.0
  O2-  O2  1  0.72137000  0.22864000  0.79212000  1.0
  O2-  O2  1  0.11432000  0.58424000  0.22137000  1.0
  O2-  O2  1  0.11432000  0.58424000  0.72137000  1.0
  O2-  O2  1  0.61432000  0.58424000  0.22137000  1.0
  O2-  O2  1  0.61432000  0.58424000  0.72137000  1.0
  O2-  O2  1  0.29212000  0.44274000  0.11432000  1.0
  O2-  O2  1  0.29212000  0.44274000  0.61432000  1.0
  O2-  O2  1  0.79212000  0.44274000  0.11432000  1.0
  O2-  O2  1  0.79212000  0.44274000  0.61432000  1.0
  O2-  O2  1  0.47137000  0.08424000  0.36432000  1.0
  O2-  O2  1  0.47137000  0.08424000  0.86432000  1.0
  O2-  O2  1  0.97137000  0.08424000  0.36432000  1.0
  O2-  O2  1  0.97137000  0.08424000  0.86432000  1.0
  O2-  O2  1  0.04212000  0.72864000  0.47137000  1.0
  O2-  O2  1  0.04212000  0.72864000  0.97137000  1.0
  O2-  O2  1  0.54212000  0.72864000  0.47137000  1.0
  O2-  O2  1  0.54212000  0.72864000  0.97137000  1.0
  O2-  O2  1  0.36432000  0.94274000  0.04212000  1.0
  O2-  O2  1  0.36432000  0.94274000  0.54212000  1.0
  O2-  O2  1  0.86432000  0.94274000  0.04212000  1.0
  O2-  O2  1  0.86432000  0.94274000  0.54212000  1.0
  O2-  O2  1  0.27863000  0.77136000  0.20788000  1.0
  O2-  O2  1  0.27863000  0.77136000  0.70788000  1.0
  O2-  O2  1  0.77863000  0.77136000  0.20788000  1.0
  O2-  O2  1  0.77863000  0.77136000  0.70788000  1.0
  O2-  O2  1  0.38568000  0.41576000  0.27863000  1.0
  O2-  O2  1  0.38568000  0.41576000  0.77863000  1.0
  O2-  O2  1  0.88568000  0.41576000  0.27863000  1.0
  O2-  O2  1  0.88568000  0.41576000  0.77863000  1.0
  O2-  O2  1  0.20788000  0.55726000  0.38568000  1.0
  O2-  O2  1  0.20788000  0.55726000  0.88568000  1.0
  O2-  O2  1  0.70788000  0.55726000  0.38568000  1.0
  O2-  O2  1  0.70788000  0.55726000  0.88568000  1.0
  O2-  O2  1  0.02863000  0.91576000  0.13568000  1.0
  O2-  O2  1  0.02863000  0.91576000  0.63568000  1.0
  O2-  O2  1  0.52863000  0.91576000  0.13568000  1.0
  O2-  O2  1  0.52863000  0.91576000  0.63568000  1.0
  O2-  O2  1  0.45788000  0.27136000  0.02863000  1.0
  O2-  O2  1  0.45788000  0.27136000  0.52863000  1.0
  O2-  O2  1  0.95788000  0.27136000  0.02863000  1.0
  O2-  O2  1  0.95788000  0.27136000  0.52863000  1.0
  O2-  O2  1  0.13568000  0.05726000  0.45788000  1.0
  O2-  O2  1  0.13568000  0.05726000  0.95788000  1.0
  O2-  O2  1  0.63568000  0.05726000  0.45788000  1.0
  O2-  O2  1  0.63568000  0.05726000  0.95788000  1.0
