# generated using pymatgen
data_Li2MgCl4
_symmetry_space_group_name_H-M   'P 1'
_cell_length_a   14.70923526
_cell_length_b   14.70923526
_cell_length_c   14.70923526
_cell_angle_alpha   60.00000000
_cell_angle_beta   120.00000000
_cell_angle_gamma   120.00000000
_symmetry_Int_Tables_number   1
_chemical_formula_structural   Li2MgCl4
_chemical_formula_sum   'Li32 Mg16 Cl64'
_cell_volume   2250.37702137
_cell_formula_units_Z   16
loop_
 _symmetry_equiv_pos_site_id
 _symmetry_equiv_pos_as_xyz
  1  'x, y, z'
loop_
 _atom_type_symbol
 _atom_type_oxidation_number
  Li+  1.0
  Mg2+  2.0
  Cl-  -1.0
loop_
 _atom_site_type_symbol
 _atom_site_label
 _atom_site_symmetry_multiplicity
 _atom_site_fract_x
 _atom_site_fract_y
 _atom_site_fract_z
 _atom_site_occupancy
  Li+  Li0  1  0.06250000  0.93750000  0.68750000  1.0
  Li+  Li1  1  0.06250000  0.43750000  0.68750000  1.0
  Li+  Li2  1  0.06250000  0.93750000  0.18750000  1.0
  Li+  Li3  1  0.06250000  0.43750000  0.18750000  1.0
  Li+  Li4  1  0.56250000  0.93750000  0.68750000  1.0
  Li+  Li5  1  0.56250000  0.43750000  0.68750000  1.0
  Li+  Li6  1  0.56250000  0.93750000  0.18750000  1.0
  Li+  Li7  1  0.56250000  0.43750000  0.18750000  1.0
  Li+  Li8  1  0.43750000  0.56250000  0.31250000  1.0
  Li+  Li9  1  0.43750000  0.06250000  0.31250000  1.0
  Li+  Li10  1  0.43750000  0.56250000  0.81250000  1.0
  Li+  Li11  1  0.43750000  0.06250000  0.81250000  1.0
  Li+  Li12  1  0.93628484  0.55854892  0.31232720  1.0
  Li+  Li13  1  0.93747241  0.06212699  0.30951521  1.0
  Li+  Li14  1  0.93340788  0.56510966  0.81490586  1.0
  Li+  Li15  1  0.93750000  0.06250000  0.81250000  1.0
  Li+  Li16  1  0.25000000  0.00000000  0.00000000  1.0
  Li+  Li17  1  0.75000000  0.00000000  0.50000000  1.0
  Li+  Li18  1  0.75000000  0.50000000  0.50000000  1.0
  Li+  Li19  1  0.75647287  0.00274136  0.00272886  1.0
  Li+  Li20  1  0.75000000  0.50000000  0.00000000  1.0
  Li+  Li21  1  0.75000000  0.25000000  0.25000000  1.0
  Li+  Li22  1  0.75000000  0.25000000  0.75000000  1.0
  Li+  Li23  1  0.00000000  0.75000000  0.00000000  1.0
  Li+  Li24  1  0.00000000  0.25000000  0.00000000  1.0
  Li+  Li25  1  0.50000000  0.25000000  0.50000000  1.0
  Li+  Li26  1  0.49588785  0.75495596  0.99808918  1.0
  Li+  Li27  1  0.25000000  0.75000000  0.50000000  1.0
  Li+  Li28  1  0.25000000  0.25000000  0.50000000  1.0
  Li+  Li29  1  0.25000000  0.75000000  0.00000000  1.0
  Li+  Li30  1  0.24850008  0.24758363  0.00359684  1.0
  Li+  Li31  1  0.75000000  0.75000000  0.50000000  1.0
  Mg2+  Mg32  1  0.25000000  0.00000000  0.50000000  1.0
  Mg2+  Mg33  1  0.25000000  0.50000000  0.50000000  1.0
  Mg2+  Mg34  1  0.25000000  0.50000000  0.00000000  1.0
  Mg2+  Mg35  1  0.25000000  0.75000000  0.25000000  1.0
  Mg2+  Mg36  1  0.25177859  0.25152695  0.25167809  1.0
  Mg2+  Mg37  1  0.25000000  0.75000000  0.75000000  1.0
  Mg2+  Mg38  1  0.25006203  0.25428550  0.75468652  1.0
  Mg2+  Mg39  1  0.75000000  0.75000000  0.25000000  1.0
  Mg2+  Mg40  1  0.75017084  0.75020070  0.75331225  1.0
  Mg2+  Mg41  1  0.00415174  0.75038272  0.49872710  1.0
  Mg2+  Mg42  1  0.00000000  0.25000000  0.50000000  1.0
  Mg2+  Mg43  1  0.49853764  0.74725464  0.49686566  1.0
  Mg2+  Mg44  1  0.50000000  0.25000000  0.00000000  1.0
  Mg2+  Mg45  1  0.75000000  0.25000000  0.50000000  1.0
  Mg2+  Mg46  1  0.75000000  0.75000000  0.00000000  1.0
  Mg2+  Mg47  1  0.75000000  0.25000000  0.00000000  1.0
  Cl-  Cl48  1  0.12849500  0.63548500  0.62150500  1.0
  Cl-  Cl49  1  0.12849500  0.13548500  0.62150500  1.0
  Cl-  Cl50  1  0.12849500  0.63548500  0.12150500  1.0
  Cl-  Cl51  1  0.12630014  0.13052560  0.12151844  1.0
  Cl-  Cl52  1  0.62777666  0.63772470  0.62194987  1.0
  Cl-  Cl53  1  0.62849500  0.13548500  0.62150500  1.0
  Cl-  Cl54  1  0.62849500  0.63548500  0.12150500  1.0
  Cl-  Cl55  1  0.62892064  0.13273330  0.11950113  1.0
  Cl-  Cl56  1  0.12849500  0.87150500  0.38548500  1.0
  Cl-  Cl57  1  0.12849500  0.37150500  0.38548500  1.0
  Cl-  Cl58  1  0.12849500  0.87150500  0.88548500  1.0
  Cl-  Cl59  1  0.12849500  0.37150500  0.88548500  1.0
  Cl-  Cl60  1  0.62849500  0.87150500  0.38548500  1.0
  Cl-  Cl61  1  0.62849500  0.37150500  0.38548500  1.0
  Cl-  Cl62  1  0.62849500  0.87150500  0.88548500  1.0
  Cl-  Cl63  1  0.62849500  0.37150500  0.88548500  1.0
  Cl-  Cl64  1  0.36451500  0.87150500  0.62150500  1.0
  Cl-  Cl65  1  0.36451500  0.37150500  0.62150500  1.0
  Cl-  Cl66  1  0.36451500  0.87150500  0.12150500  1.0
  Cl-  Cl67  1  0.36451500  0.37150500  0.12150500  1.0
  Cl-  Cl68  1  0.86386857  0.87648622  0.61946566  1.0
  Cl-  Cl69  1  0.86451500  0.37150500  0.62150500  1.0
  Cl-  Cl70  1  0.86451500  0.87150500  0.12150500  1.0
  Cl-  Cl71  1  0.86382771  0.37087271  0.12361005  1.0
  Cl-  Cl72  1  0.12849500  0.87150500  0.62150500  1.0
  Cl-  Cl73  1  0.12691175  0.37330389  0.62158200  1.0
  Cl-  Cl74  1  0.12849500  0.87150500  0.12150500  1.0
  Cl-  Cl75  1  0.12849500  0.37150500  0.12150500  1.0
  Cl-  Cl76  1  0.62849500  0.87150500  0.62150500  1.0
  Cl-  Cl77  1  0.62849500  0.37150500  0.62150500  1.0
  Cl-  Cl78  1  0.62777643  0.87419811  0.12582580  1.0
  Cl-  Cl79  1  0.62849500  0.37150500  0.12150500  1.0
  Cl-  Cl80  1  0.37150500  0.86451500  0.37849500  1.0
  Cl-  Cl81  1  0.37449576  0.36654746  0.37361957  1.0
  Cl-  Cl82  1  0.37150500  0.86451500  0.87849500  1.0
  Cl-  Cl83  1  0.37150500  0.36451500  0.87849500  1.0
  Cl-  Cl84  1  0.87614944  0.86361839  0.37670066  1.0
  Cl-  Cl85  1  0.87150500  0.36451500  0.37849500  1.0
  Cl-  Cl86  1  0.87760692  0.86834890  0.87798673  1.0
  Cl-  Cl87  1  0.87150500  0.36451500  0.87849500  1.0
  Cl-  Cl88  1  0.37150500  0.62849500  0.61451500  1.0
  Cl-  Cl89  1  0.37285067  0.12405273  0.61882699  1.0
  Cl-  Cl90  1  0.37150500  0.62849500  0.11451500  1.0
  Cl-  Cl91  1  0.37150500  0.12849500  0.11451500  1.0
  Cl-  Cl92  1  0.87150500  0.62849500  0.61451500  1.0
  Cl-  Cl93  1  0.87014870  0.12693861  0.61576593  1.0
  Cl-  Cl94  1  0.87150500  0.62849500  0.11451500  1.0
  Cl-  Cl95  1  0.87150500  0.12849500  0.11451500  1.0
  Cl-  Cl96  1  0.13555313  0.62413314  0.37366936  1.0
  Cl-  Cl97  1  0.13548500  0.12849500  0.37849500  1.0
  Cl-  Cl98  1  0.13533732  0.62410744  0.87755939  1.0
  Cl-  Cl99  1  0.13548500  0.12849500  0.87849500  1.0
  Cl-  Cl100  1  0.63242057  0.63184085  0.37729683  1.0
  Cl-  Cl101  1  0.63650606  0.12804373  0.37682481  1.0
  Cl-  Cl102  1  0.63332019  0.62913247  0.87750649  1.0
  Cl-  Cl103  1  0.63548500  0.12849500  0.87849500  1.0
  Cl-  Cl104  1  0.37150500  0.62849500  0.37849500  1.0
  Cl-  Cl105  1  0.37150500  0.12849500  0.37849500  1.0
  Cl-  Cl106  1  0.37150500  0.62849500  0.87849500  1.0
  Cl-  Cl107  1  0.37150500  0.12849500  0.87849500  1.0
  Cl-  Cl108  1  0.87150500  0.62849500  0.37849500  1.0
  Cl-  Cl109  1  0.87150500  0.12849500  0.37849500  1.0
  Cl-  Cl110  1  0.87150500  0.62849500  0.87849500  1.0
  Cl-  Cl111  1  0.87150500  0.12849500  0.87849500  1.0
