# generated using pymatgen
data_Li2MgCl4
_symmetry_space_group_name_H-M   'P 1'
_cell_length_a   14.70923526
_cell_length_b   14.70923526
_cell_length_c   14.70923526
_cell_angle_alpha   60.00000000
_cell_angle_beta   60.00000000
_cell_angle_gamma   60.00000000
_symmetry_Int_Tables_number   1
_chemical_formula_structural   Li2MgCl4
_chemical_formula_sum   'Li32 Mg16 Cl64'
_cell_volume   2250.37702137
_cell_formula_units_Z   16
loop_
 _symmetry_equiv_pos_site_id
 _symmetry_equiv_pos_as_xyz
  1  'x, y, z'
loop_
 _atom_type_symbol
 _atom_type_oxidation_number
  Li+  1.0
  Mg2+  2.0
  Cl-  -1.0
loop_
 _atom_site_type_symbol
 _atom_site_label
 _atom_site_symmetry_multiplicity
 _atom_site_fract_x
 _atom_site_fract_y
 _atom_site_fract_z
 _atom_site_occupancy
  Li+  Li1  1  0.06250000  0.06250000  0.06250000  1.0
  Li+  Li1  1  0.06250000  0.06250000  0.56250000  1.0
  Li+  Li1  1  0.06250000  0.56250000  0.06250000  1.0
  Li+  Li1  1  0.06250000  0.56250000  0.56250000  1.0
  Li+  Li1  1  0.56250000  0.06250000  0.06250000  1.0
  Li+  Li1  1  0.56250000  0.06250000  0.56250000  1.0
  Li+  Li1  1  0.56250000  0.56250000  0.06250000  1.0
  Li+  Li1  1  0.56250000  0.56250000  0.56250000  1.0
  Li+  Li1  1  0.43750000  0.43750000  0.43750000  1.0
  Li+  Li1  1  0.43750000  0.43750000  0.93750000  1.0
  Li+  Li1  1  0.43750000  0.93750000  0.43750000  1.0
  Li+  Li1  1  0.43750000  0.93750000  0.93750000  1.0
  Li+  Li1  1  0.93750000  0.43750000  0.43750000  1.0
  Li+  Li1  1  0.93750000  0.43750000  0.93750000  1.0
  Li+  Li1  1  0.93750000  0.93750000  0.43750000  1.0
  Li+  Li1  1  0.93750000  0.93750000  0.93750000  1.0
  Li+  Li16  1  0.25000000  0.75000000  0.00000000  1.0
  Li+  Li17  1  0.75000000  0.25000000  0.00000000  1.0
  Li+  Li18  1  0.75000000  0.25000000  0.50000000  1.0
  Li+  Li19  1  0.75000000  0.75000000  0.00000000  1.0
  Li+  Li20  1  0.75000000  0.75000000  0.50000000  1.0
  Li+  Li21  1  0.75000000  0.50000000  0.75000000  1.0
  Li+  Li22  1  0.75000000  0.00000000  0.75000000  1.0
  Li+  Li23  1  0.00000000  0.75000000  0.25000000  1.0
  Li+  Li24  1  0.00000000  0.75000000  0.75000000  1.0
  Li+  Li25  1  0.50000000  0.25000000  0.75000000  1.0
  Li+  Li26  1  0.50000000  0.75000000  0.25000000  1.0
  Li+  Li27  1  0.25000000  0.25000000  0.25000000  1.0
  Li+  Li28  1  0.25000000  0.25000000  0.75000000  1.0
  Li+  Li29  1  0.25000000  0.75000000  0.25000000  1.0
  Li+  Li30  1  0.25000000  0.75000000  0.75000000  1.0
  Li+  Li31  1  0.75000000  0.25000000  0.25000000  1.0
  Mg2+  Mg32  1  0.25000000  0.25000000  0.00000000  1.0
  Mg2+  Mg33  1  0.25000000  0.25000000  0.50000000  1.0
  Mg2+  Mg34  1  0.25000000  0.75000000  0.50000000  1.0
  Mg2+  Mg35  1  0.25000000  0.50000000  0.25000000  1.0
  Mg2+  Mg36  1  0.25000000  0.50000000  0.75000000  1.0
  Mg2+  Mg37  1  0.25000000  0.00000000  0.25000000  1.0
  Mg2+  Mg38  1  0.25000000  0.00000000  0.75000000  1.0
  Mg2+  Mg39  1  0.75000000  0.50000000  0.25000000  1.0
  Mg2+  Mg40  1  0.75000000  0.00000000  0.25000000  1.0
  Mg2+  Mg41  1  0.00000000  0.25000000  0.25000000  1.0
  Mg2+  Mg42  1  0.00000000  0.25000000  0.75000000  1.0
  Mg2+  Mg43  1  0.50000000  0.25000000  0.25000000  1.0
  Mg2+  Mg44  1  0.50000000  0.75000000  0.75000000  1.0
  Mg2+  Mg45  1  0.75000000  0.25000000  0.75000000  1.0
  Mg2+  Mg46  1  0.75000000  0.75000000  0.25000000  1.0
  Mg2+  Mg47  1  0.75000000  0.75000000  0.75000000  1.0
  Cl-  Cl1  1  0.12849500  0.12849500  0.36451500  1.0
  Cl-  Cl1  1  0.12849500  0.12849500  0.86451500  1.0
  Cl-  Cl1  1  0.12849500  0.62849500  0.36451500  1.0
  Cl-  Cl1  1  0.12849500  0.62849500  0.86451500  1.0
  Cl-  Cl1  1  0.62849500  0.12849500  0.36451500  1.0
  Cl-  Cl1  1  0.62849500  0.12849500  0.86451500  1.0
  Cl-  Cl1  1  0.62849500  0.62849500  0.36451500  1.0
  Cl-  Cl1  1  0.62849500  0.62849500  0.86451500  1.0
  Cl-  Cl1  1  0.12849500  0.36451500  0.12849500  1.0
  Cl-  Cl1  1  0.12849500  0.36451500  0.62849500  1.0
  Cl-  Cl1  1  0.12849500  0.86451500  0.12849500  1.0
  Cl-  Cl1  1  0.12849500  0.86451500  0.62849500  1.0
  Cl-  Cl1  1  0.62849500  0.36451500  0.12849500  1.0
  Cl-  Cl1  1  0.62849500  0.36451500  0.62849500  1.0
  Cl-  Cl1  1  0.62849500  0.86451500  0.12849500  1.0
  Cl-  Cl1  1  0.62849500  0.86451500  0.62849500  1.0
  Cl-  Cl1  1  0.36451500  0.12849500  0.12849500  1.0
  Cl-  Cl1  1  0.36451500  0.12849500  0.62849500  1.0
  Cl-  Cl1  1  0.36451500  0.62849500  0.12849500  1.0
  Cl-  Cl1  1  0.36451500  0.62849500  0.62849500  1.0
  Cl-  Cl1  1  0.86451500  0.12849500  0.12849500  1.0
  Cl-  Cl1  1  0.86451500  0.12849500  0.62849500  1.0
  Cl-  Cl1  1  0.86451500  0.62849500  0.12849500  1.0
  Cl-  Cl1  1  0.86451500  0.62849500  0.62849500  1.0
  Cl-  Cl1  1  0.12849500  0.12849500  0.12849500  1.0
  Cl-  Cl1  1  0.12849500  0.12849500  0.62849500  1.0
  Cl-  Cl1  1  0.12849500  0.62849500  0.12849500  1.0
  Cl-  Cl1  1  0.12849500  0.62849500  0.62849500  1.0
  Cl-  Cl1  1  0.62849500  0.12849500  0.12849500  1.0
  Cl-  Cl1  1  0.62849500  0.12849500  0.62849500  1.0
  Cl-  Cl1  1  0.62849500  0.62849500  0.12849500  1.0
  Cl-  Cl1  1  0.62849500  0.62849500  0.62849500  1.0
  Cl-  Cl1  1  0.37150500  0.37150500  0.13548500  1.0
  Cl-  Cl1  1  0.37150500  0.37150500  0.63548500  1.0
  Cl-  Cl1  1  0.37150500  0.87150500  0.13548500  1.0
  Cl-  Cl1  1  0.37150500  0.87150500  0.63548500  1.0
  Cl-  Cl1  1  0.87150500  0.37150500  0.13548500  1.0
  Cl-  Cl1  1  0.87150500  0.37150500  0.63548500  1.0
  Cl-  Cl1  1  0.87150500  0.87150500  0.13548500  1.0
  Cl-  Cl1  1  0.87150500  0.87150500  0.63548500  1.0
  Cl-  Cl1  1  0.37150500  0.13548500  0.37150500  1.0
  Cl-  Cl1  1  0.37150500  0.13548500  0.87150500  1.0
  Cl-  Cl1  1  0.37150500  0.63548500  0.37150500  1.0
  Cl-  Cl1  1  0.37150500  0.63548500  0.87150500  1.0
  Cl-  Cl1  1  0.87150500  0.13548500  0.37150500  1.0
  Cl-  Cl1  1  0.87150500  0.13548500  0.87150500  1.0
  Cl-  Cl1  1  0.87150500  0.63548500  0.37150500  1.0
  Cl-  Cl1  1  0.87150500  0.63548500  0.87150500  1.0
  Cl-  Cl1  1  0.13548500  0.37150500  0.37150500  1.0
  Cl-  Cl1  1  0.13548500  0.37150500  0.87150500  1.0
  Cl-  Cl1  1  0.13548500  0.87150500  0.37150500  1.0
  Cl-  Cl1  1  0.13548500  0.87150500  0.87150500  1.0
  Cl-  Cl1  1  0.63548500  0.37150500  0.37150500  1.0
  Cl-  Cl1  1  0.63548500  0.37150500  0.87150500  1.0
  Cl-  Cl1  1  0.63548500  0.87150500  0.37150500  1.0
  Cl-  Cl1  1  0.63548500  0.87150500  0.87150500  1.0
  Cl-  Cl1  1  0.37150500  0.37150500  0.37150500  1.0
  Cl-  Cl1  1  0.37150500  0.37150500  0.87150500  1.0
  Cl-  Cl1  1  0.37150500  0.87150500  0.37150500  1.0
  Cl-  Cl1  1  0.37150500  0.87150500  0.87150500  1.0
  Cl-  Cl1  1  0.87150500  0.37150500  0.37150500  1.0
  Cl-  Cl1  1  0.87150500  0.37150500  0.87150500  1.0
  Cl-  Cl1  1  0.87150500  0.87150500  0.37150500  1.0
  Cl-  Cl1  1  0.87150500  0.87150500  0.87150500  1.0
