# generated using pymatgen
data_Li6PS5Br
_symmetry_space_group_name_H-M   'P 1'
_cell_length_a   14.12346800
_cell_length_b   14.12346800
_cell_length_c   14.12346800
_cell_angle_alpha   60.00000000
_cell_angle_beta   120.00000000
_cell_angle_gamma   120.00000000
_symmetry_Int_Tables_number   1
_chemical_formula_structural   Li6PS5Br
_chemical_formula_sum   'Li48 P8 S40 Br8'
_cell_volume   1992.09044781
_cell_formula_units_Z   8
loop_
 _symmetry_equiv_pos_site_id
 _symmetry_equiv_pos_as_xyz
  1  'x, y, z'
loop_
 _atom_type_symbol
 _atom_type_oxidation_number
  Li+  1.0
  P5+  5.0
  S2-  -2.0
  Br-  -1.0
loop_
 _atom_site_type_symbol
 _atom_site_label
 _atom_site_symmetry_multiplicity
 _atom_site_fract_x
 _atom_site_fract_y
 _atom_site_fract_z
 _atom_site_occupancy
  Li+  Li0  1  0.60300000  0.17500000  0.64700000  1.0
  Li+  Li1  1  0.46900000  0.89700000  0.92500000  1.0
  Li+  Li2  1  0.46900000  0.39700000  0.64700000  1.0
  Li+  Li3  1  0.96900000  0.39700000  0.14700000  1.0
  Li+  Li4  1  0.10208387  0.17598989  0.78147886  1.0
  Li+  Li5  1  0.82469784  0.53508073  0.65041800  1.0
  Li+  Li6  1  0.82500000  0.03100000  0.14700000  1.0
  Li+  Li7  1  0.10300000  0.53100000  0.42500000  1.0
  Li+  Li8  1  0.60300000  0.03100000  0.92500000  1.0
  Li+  Li9  1  0.82500000  0.89700000  0.14700000  1.0
  Li+  Li10  1  0.10300000  0.39700000  0.92500000  1.0
  Li+  Li11  1  0.60300000  0.39700000  0.92500000  1.0
  Li+  Li12  1  0.24300000  0.75700000  0.74300000  1.0
  Li+  Li13  1  0.74165703  0.25522450  0.24722501  1.0
  Li+  Li14  1  0.24300000  0.99300000  0.24300000  1.0
  Li+  Li15  1  0.24300000  0.49300000  0.24300000  1.0
  Li+  Li16  1  0.50700000  0.75700000  0.74300000  1.0
  Li+  Li17  1  0.00700000  0.99300000  0.50700000  1.0
  Li+  Li18  1  0.74300000  0.99300000  0.50700000  1.0
  Li+  Li19  1  0.18209982  0.70139080  0.23672382  1.0
  Li+  Li20  1  0.01343423  0.81945169  0.45297816  1.0
  Li+  Li21  1  0.01165000  0.81955000  0.95375000  1.0
  Li+  Li22  1  0.51221490  0.32156440  0.45622532  1.0
  Li+  Li23  1  0.51165000  0.31955000  0.95375000  1.0
  Li+  Li24  1  0.79625000  0.98835000  0.23835000  1.0
  Li+  Li25  1  0.01165000  0.70375000  0.73835000  1.0
  Li+  Li26  1  0.01165000  0.20375000  0.73835000  1.0
  Li+  Li27  1  0.01165000  0.70375000  0.23835000  1.0
  Li+  Li28  1  0.51165000  0.70375000  0.23835000  1.0
  Li+  Li29  1  0.01165000  0.81955000  0.73835000  1.0
  Li+  Li30  1  0.01165000  0.31955000  0.73835000  1.0
  Li+  Li31  1  0.51165000  0.31955000  0.23835000  1.0
  Li+  Li32  1  0.01165000  0.70375000  0.06955000  1.0
  Li+  Li33  1  0.01312628  0.20246951  0.06971967  1.0
  Li+  Li34  1  0.51165000  0.20375000  0.56955000  1.0
  Li+  Li35  1  0.51165000  0.98835000  0.56955000  1.0
  Li+  Li36  1  0.50766351  0.49108463  0.06911005  1.0
  Li+  Li37  1  0.18045000  0.98835000  0.73835000  1.0
  Li+  Li38  1  0.18045000  0.48835000  0.23835000  1.0
  Li+  Li39  1  0.68045000  0.98835000  0.73835000  1.0
  Li+  Li40  1  0.68045000  0.48835000  0.73835000  1.0
  Li+  Li41  1  0.68045000  0.48835000  0.23835000  1.0
  Li+  Li42  1  0.01165000  0.48835000  0.45375000  1.0
  Li+  Li43  1  0.51165000  0.98835000  0.45375000  1.0
  Li+  Li44  1  0.51165000  0.48835000  0.45375000  1.0
  Li+  Li45  1  0.30308037  0.49130837  0.57272192  1.0
  Li+  Li46  1  0.29625000  0.98835000  0.06955000  1.0
  Li+  Li47  1  0.68254374  0.98501058  0.45313606  1.0
  P5+  P48  1  0.25000000  0.75000000  0.50000000  1.0
  P5+  P49  1  0.25000000  0.25000000  0.50000000  1.0
  P5+  P50  1  0.25000000  0.75000000  0.00000000  1.0
  P5+  P51  1  0.25000000  0.25000000  0.00000000  1.0
  P5+  P52  1  0.75000000  0.75000000  0.50000000  1.0
  P5+  P53  1  0.75000000  0.25000000  0.50000000  1.0
  P5+  P54  1  0.75000000  0.75000000  0.00000000  1.0
  P5+  P55  1  0.75000000  0.25000000  0.00000000  1.0
  S2-  S56  1  0.30900000  0.69100000  0.67700000  1.0
  S2-  S57  1  0.30900000  0.19100000  0.67700000  1.0
  S2-  S58  1  0.30769617  0.68466278  0.17756962  1.0
  S2-  S59  1  0.30900000  0.19100000  0.17700000  1.0
  S2-  S60  1  0.80900000  0.69100000  0.67700000  1.0
  S2-  S61  1  0.80900000  0.19100000  0.67700000  1.0
  S2-  S62  1  0.80900000  0.69100000  0.17700000  1.0
  S2-  S63  1  0.80760551  0.18963357  0.17652441  1.0
  S2-  S64  1  0.31093861  0.69206757  0.44305616  1.0
  S2-  S65  1  0.30900000  0.19100000  0.44100000  1.0
  S2-  S66  1  0.30900000  0.69100000  0.94100000  1.0
  S2-  S67  1  0.30900000  0.19100000  0.94100000  1.0
  S2-  S68  1  0.81602499  0.69041841  0.43957734  1.0
  S2-  S69  1  0.81219479  0.19259977  0.44019959  1.0
  S2-  S70  1  0.81186596  0.68718666  0.94058766  1.0
  S2-  S71  1  0.80900000  0.19100000  0.94100000  1.0
  S2-  S72  1  0.30900000  0.92700000  0.44100000  1.0
  S2-  S73  1  0.31337769  0.42747518  0.44391505  1.0
  S2-  S74  1  0.30683935  0.92225225  0.93892874  1.0
  S2-  S75  1  0.30900000  0.42700000  0.94100000  1.0
  S2-  S76  1  0.80900000  0.92700000  0.44100000  1.0
  S2-  S77  1  0.80900000  0.42700000  0.44100000  1.0
  S2-  S78  1  0.80813552  0.92764822  0.94112680  1.0
  S2-  S79  1  0.80900000  0.42700000  0.94100000  1.0
  S2-  S80  1  0.07300000  0.69100000  0.44100000  1.0
  S2-  S81  1  0.07300000  0.19100000  0.44100000  1.0
  S2-  S82  1  0.07300000  0.69100000  0.94100000  1.0
  S2-  S83  1  0.07300000  0.19100000  0.94100000  1.0
  S2-  S84  1  0.57300000  0.69100000  0.44100000  1.0
  S2-  S85  1  0.57220620  0.18474803  0.44200641  1.0
  S2-  S86  1  0.57300000  0.69100000  0.94100000  1.0
  S2-  S87  1  0.57146153  0.19318723  0.93966606  1.0
  S2-  S88  1  0.00000000  0.00000000  0.75000000  1.0
  S2-  S89  1  0.37500000  0.62500000  0.37500000  1.0
  S2-  S90  1  0.37500000  0.62500000  0.87500000  1.0
  S2-  S91  1  0.37500000  0.12500000  0.87500000  1.0
  S2-  S92  1  0.87500000  0.62500000  0.37500000  1.0
  S2-  S93  1  0.87500000  0.12500000  0.37500000  1.0
  S2-  S94  1  0.87422463  0.62424025  0.87805877  1.0
  S2-  S95  1  0.87523616  0.12062540  0.87411055  1.0
  Br-  Br96  1  0.00000000  0.50000000  0.75000000  1.0
  Br-  Br97  1  0.00022832  0.99972288  0.25052080  1.0
  Br-  Br98  1  0.00000000  0.50000000  0.25000000  1.0
  Br-  Br99  1  0.50000000  0.00000000  0.75000000  1.0
  Br-  Br100  1  0.50091463  0.49736958  0.74742509  1.0
  Br-  Br101  1  0.49864740  0.99850091  0.25315726  1.0
  Br-  Br102  1  0.50000000  0.50000000  0.25000000  1.0
  Br-  Br103  1  0.37500000  0.12500000  0.37500000  1.0
