# generated using pymatgen
data_Li3La7Ti6Al4O30
_symmetry_space_group_name_H-M   'P 1'
_cell_length_a   7.69440000
_cell_length_b   19.23600000
_cell_length_c   7.69440000
_cell_angle_alpha   90.00000000
_cell_angle_beta   90.00000000
_cell_angle_gamma   90.00000000
_symmetry_Int_Tables_number   1
_chemical_formula_structural   Li3La7Ti6Al4O30
_chemical_formula_sum   'Li6 La14 Ti12 Al8 O60'
_cell_volume   1138.84413060
_cell_formula_units_Z   2
loop_
 _symmetry_equiv_pos_site_id
 _symmetry_equiv_pos_as_xyz
  1  'x, y, z'
loop_
 _atom_type_symbol
 _atom_type_oxidation_number
  Li+  1.0
  La3+  3.0
  Ti4+  4.0
  Al3+  3.0
  O2-  -2.0
loop_
 _atom_site_type_symbol
 _atom_site_label
 _atom_site_symmetry_multiplicity
 _atom_site_fract_x
 _atom_site_fract_y
 _atom_site_fract_z
 _atom_site_occupancy
  Li+  Li0  1  0.25000000  0.90000000  0.50000000  1.0
  Li+  Li1  1  0.24588379  0.49377098  0.49619531  1.0
  Li+  Li2  1  0.25621860  0.89647338  0.99939372  1.0
  Li+  Li3  1  0.25000000  0.30000000  0.00000000  1.0
  Li+  Li4  1  0.75000000  0.70000000  0.50000000  1.0
  Li+  Li5  1  0.75000000  0.10000000  0.00000000  1.0
  La3+  La6  1  0.25000000  0.70000000  0.50000000  1.0
  La3+  La7  1  0.25000000  0.30000000  0.50000000  1.0
  La3+  La8  1  0.25000000  0.10000000  0.50000000  1.0
  La3+  La9  1  0.25000000  0.70000000  0.00000000  1.0
  La3+  La10  1  0.25135713  0.49796962  0.00331725  1.0
  La3+  La11  1  0.25000000  0.10000000  0.00000000  1.0
  La3+  La12  1  0.75000000  0.90000000  0.50000000  1.0
  La3+  La13  1  0.75000000  0.50000000  0.50000000  1.0
  La3+  La14  1  0.75000000  0.30000000  0.50000000  1.0
  La3+  La15  1  0.75000000  0.10000000  0.50000000  1.0
  La3+  La16  1  0.75000000  0.90000000  0.00000000  1.0
  La3+  La17  1  0.75000000  0.70000000  0.00000000  1.0
  La3+  La18  1  0.75088039  0.49933328  0.99558947  1.0
  La3+  La19  1  0.75000000  0.30000000  0.00000000  1.0
  Ti4+  Ti20  1  0.99919149  0.79812783  0.75586453  1.0
  Ti4+  Ti21  1  0.00000000  0.60000000  0.75000000  1.0
  Ti4+  Ti22  1  0.00130539  0.19714501  0.75079128  1.0
  Ti4+  Ti23  1  0.00000000  0.80000000  0.25000000  1.0
  Ti4+  Ti24  1  0.00000000  0.20000000  0.25000000  1.0
  Ti4+  Ti25  1  0.50000000  0.00000000  0.75000000  1.0
  Ti4+  Ti26  1  0.50000000  0.80000000  0.75000000  1.0
  Ti4+  Ti27  1  0.49779191  0.00232970  0.24756602  1.0
  Ti4+  Ti28  1  0.49961463  0.80121021  0.24936259  1.0
  Ti4+  Ti29  1  0.50000000  0.60000000  0.25000000  1.0
  Ti4+  Ti30  1  0.50000000  0.40000000  0.25000000  1.0
  Ti4+  Ti31  1  0.50000000  0.20000000  0.25000000  1.0
  Al3+  Al32  1  0.00000000  0.00000000  0.75000000  1.0
  Al3+  Al33  1  0.00000000  0.40000000  0.75000000  1.0
  Al3+  Al34  1  0.00135230  0.99956106  0.24739814  1.0
  Al3+  Al35  1  0.00000000  0.60000000  0.25000000  1.0
  Al3+  Al36  1  0.00026629  0.39959559  0.25394277  1.0
  Al3+  Al37  1  0.50000000  0.60000000  0.75000000  1.0
  Al3+  Al38  1  0.50016949  0.39747241  0.74927024  1.0
  Al3+  Al39  1  0.50000000  0.20000000  0.75000000  1.0
  O2-  O40  1  0.00000000  0.90000000  0.75000000  1.0
  O2-  O41  1  0.00000000  0.70000000  0.75000000  1.0
  O2-  O42  1  0.00000000  0.50000000  0.75000000  1.0
  O2-  O43  1  0.00000000  0.30000000  0.75000000  1.0
  O2-  O44  1  0.00000000  0.10000000  0.75000000  1.0
  O2-  O45  1  0.00000000  0.90000000  0.25000000  1.0
  O2-  O46  1  0.00000000  0.70000000  0.25000000  1.0
  O2-  O47  1  0.00000000  0.50000000  0.25000000  1.0
  O2-  O48  1  0.00000000  0.30000000  0.25000000  1.0
  O2-  O49  1  0.00000000  0.10000000  0.25000000  1.0
  O2-  O50  1  0.50000000  0.90000000  0.75000000  1.0
  O2-  O51  1  0.50000000  0.70000000  0.75000000  1.0
  O2-  O52  1  0.50004369  0.50337735  0.74839778  1.0
  O2-  O53  1  0.50000000  0.30000000  0.75000000  1.0
  O2-  O54  1  0.50000000  0.10000000  0.75000000  1.0
  O2-  O55  1  0.50000000  0.90000000  0.25000000  1.0
  O2-  O56  1  0.50000000  0.70000000  0.25000000  1.0
  O2-  O57  1  0.50000000  0.50000000  0.25000000  1.0
  O2-  O58  1  0.50000000  0.30000000  0.25000000  1.0
  O2-  O59  1  0.50203287  0.09923110  0.25099026  1.0
  O2-  O60  1  0.00092881  0.99867067  0.50233232  1.0
  O2-  O61  1  0.00000000  0.80000000  0.50000000  1.0
  O2-  O62  1  0.00120691  0.60094487  0.50196181  1.0
  O2-  O63  1  0.00427444  0.40103196  0.50203138  1.0
  O2-  O64  1  0.00000000  0.20000000  0.50000000  1.0
  O2-  O65  1  0.00000000  0.00000000  0.00000000  1.0
  O2-  O66  1  0.00165504  0.79876726  0.99717320  1.0
  O2-  O67  1  0.00000000  0.60000000  0.00000000  1.0
  O2-  O68  1  0.00000000  0.40000000  0.00000000  1.0
  O2-  O69  1  0.00000000  0.20000000  0.00000000  1.0
  O2-  O70  1  0.50000000  0.00000000  0.50000000  1.0
  O2-  O71  1  0.50055880  0.79818003  0.49946766  1.0
  O2-  O72  1  0.50000000  0.60000000  0.50000000  1.0
  O2-  O73  1  0.50000000  0.40000000  0.50000000  1.0
  O2-  O74  1  0.50000000  0.20000000  0.50000000  1.0
  O2-  O75  1  0.50000000  0.00000000  0.00000000  1.0
  O2-  O76  1  0.49947888  0.79772172  0.00253930  1.0
  O2-  O77  1  0.50000000  0.60000000  0.00000000  1.0
  O2-  O78  1  0.50000000  0.40000000  0.00000000  1.0
  O2-  O79  1  0.50000000  0.20000000  0.00000000  1.0
  O2-  O80  1  0.25000000  0.00000000  0.75000000  1.0
  O2-  O81  1  0.25000000  0.80000000  0.75000000  1.0
  O2-  O82  1  0.25000000  0.60000000  0.75000000  1.0
  O2-  O83  1  0.25000000  0.40000000  0.75000000  1.0
  O2-  O84  1  0.25000000  0.20000000  0.75000000  1.0
  O2-  O85  1  0.25164410  0.99762971  0.24442748  1.0
  O2-  O86  1  0.25000000  0.80000000  0.25000000  1.0
  O2-  O87  1  0.24987071  0.60201600  0.25032954  1.0
  O2-  O88  1  0.25000000  0.40000000  0.25000000  1.0
  O2-  O89  1  0.24790967  0.20107868  0.24472484  1.0
  O2-  O90  1  0.75000000  0.00000000  0.75000000  1.0
  O2-  O91  1  0.75000000  0.80000000  0.75000000  1.0
  O2-  O92  1  0.74577510  0.60023077  0.74865658  1.0
  O2-  O93  1  0.75000000  0.40000000  0.75000000  1.0
  O2-  O94  1  0.75000000  0.20000000  0.75000000  1.0
  O2-  O95  1  0.74881966  0.00117006  0.24617252  1.0
  O2-  O96  1  0.75000000  0.80000000  0.25000000  1.0
  O2-  O97  1  0.75000000  0.60000000  0.25000000  1.0
  O2-  O98  1  0.74968903  0.39748912  0.25441661  1.0
  O2-  O99  1  0.75000000  0.20000000  0.25000000  1.0
