# generated using pymatgen
data_Li9Al4Ge6(PO4)15
_symmetry_space_group_name_H-M   'P 1'
_cell_length_a   8.25004000
_cell_length_b   41.25020000
_cell_length_c   8.38607443
_cell_angle_alpha   60.53516659
_cell_angle_beta   60.53516659
_cell_angle_gamma   60.00000000
_symmetry_Int_Tables_number   1
_chemical_formula_structural   Li9Al4Ge6(PO4)15
_chemical_formula_sum   'Li18 Al8 Ge12 P30 O120'
_cell_volume   2034.19177744
_cell_formula_units_Z   2
loop_
 _symmetry_equiv_pos_site_id
 _symmetry_equiv_pos_as_xyz
  1  'x, y, z'
loop_
 _atom_type_symbol
 _atom_type_oxidation_number
  Li+  1.0
  Al3+  3.0
  Ge4+  4.0
  P5+  5.0
  O2-  -2.0
loop_
 _atom_site_type_symbol
 _atom_site_label
 _atom_site_symmetry_multiplicity
 _atom_site_fract_x
 _atom_site_fract_y
 _atom_site_fract_z
 _atom_site_occupancy
  Li+  Li0  1  0.22140000  0.73548000  0.67280000  1.0
  Li+  Li1  1  0.22140000  0.93548000  0.67280000  1.0
  Li+  Li2  1  0.92840000  0.23548000  0.17280000  1.0
  Li+  Li3  1  0.92840000  0.83548000  0.17280000  1.0
  Li+  Li4  1  0.72140000  0.38568000  0.17280000  1.0
  Li+  Li5  1  0.32260000  0.91432000  0.32720000  1.0
  Li+  Li6  1  0.77860000  0.06452000  0.32720000  1.0
  Li+  Li7  1  0.77860000  0.46452000  0.32720000  1.0
  Li+  Li8  1  0.07160000  0.56452000  0.82720000  1.0
  Li+  Li9  1  0.27860000  0.21432000  0.82720000  1.0
  Li+  Li10  1  0.27860000  0.61432000  0.82720000  1.0
  Li+  Li11  1  0.82260000  0.05572000  0.82720000  1.0
  Li+  Li12  1  0.50000000  0.50000000  0.50000000  1.0
  Li+  Li13  1  0.50000000  0.70000000  0.50000000  1.0
  Li+  Li14  1  0.00000000  0.00000000  0.00000000  1.0
  Li+  Li15  1  1.00000000  0.20000000  0.00000000  1.0
  Li+  Li16  1  1.00000000  0.40000000  0.00000000  1.0
  Li+  Li17  1  1.00000000  0.60000000  1.00000000  1.0
  Al3+  Al18  1  0.35818000  0.67163600  0.92546000  1.0
  Al3+  Al19  1  0.35818000  0.87163600  0.92546000  1.0
  Al3+  Al20  1  0.85818000  0.17163600  0.42546000  1.0
  Al3+  Al21  1  0.85818000  0.37163600  0.42546000  1.0
  Al3+  Al22  1  0.85818000  0.97163600  0.42546000  1.0
  Al3+  Al23  1  0.64182000  0.52836400  0.07454000  1.0
  Al3+  Al24  1  0.14182000  0.02836400  0.57454000  1.0
  Al3+  Al25  1  0.14182000  0.62836400  0.57454000  1.0
  Ge4+  Ge26  1  0.35818000  0.07163600  0.92546000  1.0
  Ge4+  Ge27  1  0.35818000  0.27163600  0.92546000  1.0
  Ge4+  Ge28  1  0.35818000  0.47163600  0.92546000  1.0
  Ge4+  Ge29  1  0.85818000  0.57163600  0.42546000  1.0
  Ge4+  Ge30  1  0.85818000  0.77163600  0.42546000  1.0
  Ge4+  Ge31  1  0.64182000  0.12836400  0.07454000  1.0
  Ge4+  Ge32  1  0.64182000  0.32836400  0.07454000  1.0
  Ge4+  Ge33  1  0.64182000  0.72836400  0.07454000  1.0
  Ge4+  Ge34  1  0.64182000  0.92836400  0.07454000  1.0
  Ge4+  Ge35  1  0.14182000  0.22836400  0.57454000  1.0
  Ge4+  Ge36  1  0.14182000  0.42836400  0.57454000  1.0
  Ge4+  Ge37  1  0.14182000  0.82836400  0.57454000  1.0
  P5+  P1  1  0.25000000  0.19254000  0.25000000  1.0
  P5+  P1  1  0.25000000  0.39254000  0.25000000  1.0
  P5+  P1  1  0.25000000  0.59254000  0.25000000  1.0
  P5+  P1  1  0.25000000  0.79254000  0.25000000  1.0
  P5+  P1  1  0.25000000  0.99254000  0.25000000  1.0
  P5+  P1  1  0.53730000  0.05000000  0.25000000  1.0
  P5+  P1  1  0.53730000  0.25000000  0.25000000  1.0
  P5+  P1  1  0.53730000  0.45000000  0.25000000  1.0
  P5+  P1  1  0.53730000  0.65000000  0.25000000  1.0
  P5+  P1  1  0.53730000  0.85000000  0.25000000  1.0
  P5+  P1  1  0.96270000  0.10746000  0.25000000  1.0
  P5+  P1  1  0.96270000  0.30746000  0.25000000  1.0
  P5+  P1  1  0.96270000  0.50746000  0.25000000  1.0
  P5+  P1  1  0.96270000  0.70746000  0.25000000  1.0
  P5+  P1  1  0.96270000  0.90746000  0.25000000  1.0
  P5+  P1  1  0.46270000  0.15000000  0.75000000  1.0
  P5+  P1  1  0.46270000  0.35000000  0.75000000  1.0
  P5+  P1  1  0.46270000  0.55000000  0.75000000  1.0
  P5+  P1  1  0.46270000  0.75000000  0.75000000  1.0
  P5+  P1  1  0.46270000  0.95000000  0.75000000  1.0
  P5+  P1  1  0.03730000  0.09254000  0.75000000  1.0
  P5+  P1  1  0.03730000  0.29254000  0.75000000  1.0
  P5+  P1  1  0.03730000  0.49254000  0.75000000  1.0
  P5+  P1  1  0.03730000  0.69254000  0.75000000  1.0
  P5+  P1  1  0.03730000  0.89254000  0.75000000  1.0
  P5+  P1  1  0.75000000  0.00746000  0.75000000  1.0
  P5+  P1  1  0.75000000  0.20746000  0.75000000  1.0
  P5+  P1  1  0.75000000  0.40746000  0.75000000  1.0
  P5+  P1  1  0.75000000  0.60746000  0.75000000  1.0
  P5+  P1  1  0.75000000  0.80746000  0.75000000  1.0
  O2-  O1  1  0.28823000  0.02686600  0.06781000  1.0
  O2-  O1  1  0.28823000  0.22686600  0.06781000  1.0
  O2-  O1  1  0.28823000  0.42686600  0.06781000  1.0
  O2-  O1  1  0.28823000  0.62686600  0.06781000  1.0
  O2-  O1  1  0.28823000  0.82686600  0.06781000  1.0
  O2-  O1  1  0.50963000  0.05764600  0.06781000  1.0
  O2-  O1  1  0.50963000  0.25764600  0.06781000  1.0
  O2-  O1  1  0.50963000  0.45764600  0.06781000  1.0
  O2-  O1  1  0.50963000  0.65764600  0.06781000  1.0
  O2-  O1  1  0.50963000  0.85764600  0.06781000  1.0
  O2-  O1  1  0.13433000  0.10192600  0.06781000  1.0
  O2-  O1  1  0.13433000  0.30192600  0.06781000  1.0
  O2-  O1  1  0.13433000  0.50192600  0.06781000  1.0
  O2-  O1  1  0.13433000  0.70192600  0.06781000  1.0
  O2-  O1  1  0.13433000  0.90192600  0.06781000  1.0
  O2-  O1  1  0.63433000  0.15764600  0.56781000  1.0
  O2-  O1  1  0.63433000  0.35764600  0.56781000  1.0
  O2-  O1  1  0.63433000  0.55764600  0.56781000  1.0
  O2-  O1  1  0.63433000  0.75764600  0.56781000  1.0
  O2-  O1  1  0.63433000  0.95764600  0.56781000  1.0
  O2-  O1  1  0.00963000  0.12686600  0.56781000  1.0
  O2-  O1  1  0.00963000  0.32686600  0.56781000  1.0
  O2-  O1  1  0.00963000  0.52686600  0.56781000  1.0
  O2-  O1  1  0.00963000  0.72686600  0.56781000  1.0
  O2-  O1  1  0.00963000  0.92686600  0.56781000  1.0
  O2-  O1  1  0.78823000  0.00192600  0.56781000  1.0
  O2-  O1  1  0.78823000  0.20192600  0.56781000  1.0
  O2-  O1  1  0.78823000  0.40192600  0.56781000  1.0
  O2-  O1  1  0.78823000  0.60192600  0.56781000  1.0
  O2-  O1  1  0.78823000  0.80192600  0.56781000  1.0
  O2-  O1  1  0.71177000  0.17313400  0.93219000  1.0
  O2-  O1  1  0.71177000  0.37313400  0.93219000  1.0
  O2-  O1  1  0.71177000  0.57313400  0.93219000  1.0
  O2-  O1  1  0.71177000  0.77313400  0.93219000  1.0
  O2-  O1  1  0.71177000  0.97313400  0.93219000  1.0
  O2-  O1  1  0.49037000  0.14235400  0.93219000  1.0
  O2-  O1  1  0.49037000  0.34235400  0.93219000  1.0
  O2-  O1  1  0.49037000  0.54235400  0.93219000  1.0
  O2-  O1  1  0.49037000  0.74235400  0.93219000  1.0
  O2-  O1  1  0.49037000  0.94235400  0.93219000  1.0
  O2-  O1  1  0.86567000  0.09807400  0.93219000  1.0
  O2-  O1  1  0.86567000  0.29807400  0.93219000  1.0
  O2-  O1  1  0.86567000  0.49807400  0.93219000  1.0
  O2-  O1  1  0.86567000  0.69807400  0.93219000  1.0
  O2-  O1  1  0.86567000  0.89807400  0.93219000  1.0
  O2-  O1  1  0.36567000  0.04235400  0.43219000  1.0
  O2-  O1  1  0.36567000  0.24235400  0.43219000  1.0
  O2-  O1  1  0.36567000  0.44235400  0.43219000  1.0
  O2-  O1  1  0.36567000  0.64235400  0.43219000  1.0
  O2-  O1  1  0.36567000  0.84235400  0.43219000  1.0
  O2-  O1  1  0.99037000  0.07313400  0.43219000  1.0
  O2-  O1  1  0.99037000  0.27313400  0.43219000  1.0
  O2-  O1  1  0.99037000  0.47313400  0.43219000  1.0
  O2-  O1  1  0.99037000  0.67313400  0.43219000  1.0
  O2-  O1  1  0.99037000  0.87313400  0.43219000  1.0
  O2-  O1  1  0.21177000  0.19807400  0.43219000  1.0
  O2-  O1  1  0.21177000  0.39807400  0.43219000  1.0
  O2-  O1  1  0.21177000  0.59807400  0.43219000  1.0
  O2-  O1  1  0.21177000  0.79807400  0.43219000  1.0
  O2-  O1  1  0.21177000  0.99807400  0.43219000  1.0
  O2-  O2  1  0.57702000  0.04574400  0.75494000  1.0
  O2-  O2  1  0.57702000  0.24574400  0.75494000  1.0
  O2-  O2  1  0.57702000  0.44574400  0.75494000  1.0
  O2-  O2  1  0.57702000  0.64574400  0.75494000  1.0
  O2-  O2  1  0.57702000  0.84574400  0.75494000  1.0
  O2-  O2  1  0.43932000  0.11540400  0.75494000  1.0
  O2-  O2  1  0.43932000  0.31540400  0.75494000  1.0
  O2-  O2  1  0.43932000  0.51540400  0.75494000  1.0
  O2-  O2  1  0.43932000  0.71540400  0.75494000  1.0
  O2-  O2  1  0.43932000  0.91540400  0.75494000  1.0
  O2-  O2  1  0.22872000  0.08786400  0.75494000  1.0
  O2-  O2  1  0.22872000  0.28786400  0.75494000  1.0
  O2-  O2  1  0.22872000  0.48786400  0.75494000  1.0
  O2-  O2  1  0.22872000  0.68786400  0.75494000  1.0
  O2-  O2  1  0.22872000  0.88786400  0.75494000  1.0
  O2-  O2  1  0.72872000  0.01540400  0.25494000  1.0
  O2-  O2  1  0.72872000  0.21540400  0.25494000  1.0
  O2-  O2  1  0.72872000  0.41540400  0.25494000  1.0
  O2-  O2  1  0.72872000  0.61540400  0.25494000  1.0
  O2-  O2  1  0.72872000  0.81540400  0.25494000  1.0
  O2-  O2  1  0.93932000  0.14574400  0.25494000  1.0
  O2-  O2  1  0.93932000  0.34574400  0.25494000  1.0
  O2-  O2  1  0.93932000  0.54574400  0.25494000  1.0
  O2-  O2  1  0.93932000  0.74574400  0.25494000  1.0
  O2-  O2  1  0.93932000  0.94574400  0.25494000  1.0
  O2-  O2  1  0.07702000  0.18786400  0.25494000  1.0
  O2-  O2  1  0.07702000  0.38786400  0.25494000  1.0
  O2-  O2  1  0.07702000  0.58786400  0.25494000  1.0
  O2-  O2  1  0.07702000  0.78786400  0.25494000  1.0
  O2-  O2  1  0.07702000  0.98786400  0.25494000  1.0
  O2-  O2  1  0.42298000  0.15425600  0.24506000  1.0
  O2-  O2  1  0.42298000  0.35425600  0.24506000  1.0
  O2-  O2  1  0.42298000  0.55425600  0.24506000  1.0
  O2-  O2  1  0.42298000  0.75425600  0.24506000  1.0
  O2-  O2  1  0.42298000  0.95425600  0.24506000  1.0
  O2-  O2  1  0.56068000  0.08459600  0.24506000  1.0
  O2-  O2  1  0.56068000  0.28459600  0.24506000  1.0
  O2-  O2  1  0.56068000  0.48459600  0.24506000  1.0
  O2-  O2  1  0.56068000  0.68459600  0.24506000  1.0
  O2-  O2  1  0.56068000  0.88459600  0.24506000  1.0
  O2-  O2  1  0.77128000  0.11213600  0.24506000  1.0
  O2-  O2  1  0.77128000  0.31213600  0.24506000  1.0
  O2-  O2  1  0.77128000  0.51213600  0.24506000  1.0
  O2-  O2  1  0.77128000  0.71213600  0.24506000  1.0
  O2-  O2  1  0.77128000  0.91213600  0.24506000  1.0
  O2-  O2  1  0.27128000  0.18459600  0.74506000  1.0
  O2-  O2  1  0.27128000  0.38459600  0.74506000  1.0
  O2-  O2  1  0.27128000  0.58459600  0.74506000  1.0
  O2-  O2  1  0.27128000  0.78459600  0.74506000  1.0
  O2-  O2  1  0.27128000  0.98459600  0.74506000  1.0
  O2-  O2  1  0.06068000  0.05425600  0.74506000  1.0
  O2-  O2  1  0.06068000  0.25425600  0.74506000  1.0
  O2-  O2  1  0.06068000  0.45425600  0.74506000  1.0
  O2-  O2  1  0.06068000  0.65425600  0.74506000  1.0
  O2-  O2  1  0.06068000  0.85425600  0.74506000  1.0
  O2-  O2  1  0.92298000  0.01213600  0.74506000  1.0
  O2-  O2  1  0.92298000  0.21213600  0.74506000  1.0
  O2-  O2  1  0.92298000  0.41213600  0.74506000  1.0
  O2-  O2  1  0.92298000  0.61213600  0.74506000  1.0
  O2-  O2  1  0.92298000  0.81213600  0.74506000  1.0
