# generated using pymatgen
data_LiZnSO4F
_symmetry_space_group_name_H-M   'P 1'
_cell_length_a   12.65990000
_cell_length_b   7.42016000
_cell_length_c   22.21071000
_cell_angle_alpha   90.00000000
_cell_angle_beta   90.00000000
_cell_angle_gamma   90.00000000
_symmetry_Int_Tables_number   1
_chemical_formula_structural   LiZnSO4F
_chemical_formula_sum   'Li24 Zn24 S24 O96 F24'
_cell_volume   2086.44041672
_cell_formula_units_Z   24
loop_
 _symmetry_equiv_pos_site_id
 _symmetry_equiv_pos_as_xyz
  1  'x, y, z'
loop_
 _atom_type_symbol
 _atom_type_oxidation_number
  Li+  1.0
  Zn2+  2.0
  S6+  6.0
  O2-  -2.0
  F-  -1.0
loop_
 _atom_site_type_symbol
 _atom_site_label
 _atom_site_symmetry_multiplicity
 _atom_site_fract_x
 _atom_site_fract_y
 _atom_site_fract_z
 _atom_site_occupancy
  Li+  Li0  1  0.00000000  0.50000000  0.58333333  1.0
  Li+  Li1  1  0.00000000  0.50000000  0.25000000  1.0
  Li+  Li2  1  0.00081651  0.49817458  0.92035993  1.0
  Li+  Li3  1  0.50000000  0.50000000  0.58333333  1.0
  Li+  Li4  1  0.50000000  0.50000000  0.25000000  1.0
  Li+  Li5  1  0.50000000  0.50000000  0.91666667  1.0
  Li+  Li6  1  0.25000000  0.00000000  0.75000000  1.0
  Li+  Li7  1  0.25000000  0.00000000  0.41666667  1.0
  Li+  Li8  1  0.25000000  0.00000000  0.08333333  1.0
  Li+  Li9  1  0.75000000  0.00000000  0.75000000  1.0
  Li+  Li10  1  0.75000000  0.00000000  0.41666667  1.0
  Li+  Li11  1  0.75000000  0.00000000  0.08333333  1.0
  Li+  Li12  1  0.25000000  0.50000000  0.58333333  1.0
  Li+  Li13  1  0.25000000  0.50000000  0.25000000  1.0
  Li+  Li14  1  0.25000000  0.50000000  0.91666667  1.0
  Li+  Li15  1  0.75000000  0.50000000  0.58333333  1.0
  Li+  Li16  1  0.75000000  0.50000000  0.25000000  1.0
  Li+  Li17  1  0.74716953  0.49779608  0.91769144  1.0
  Li+  Li18  1  0.99850226  0.99768451  0.75092181  1.0
  Li+  Li19  1  0.00280852  0.99956972  0.41816713  1.0
  Li+  Li20  1  0.00000000  0.00000000  0.08333333  1.0
  Li+  Li21  1  0.49994032  0.99967206  0.75080356  1.0
  Li+  Li22  1  0.50000000  0.00000000  0.41666667  1.0
  Li+  Li23  1  0.50000000  0.00000000  0.08333333  1.0
  Zn2+  Zn24  1  0.37500000  0.20738000  0.63115000  1.0
  Zn2+  Zn25  1  0.37500000  0.20738000  0.29781667  1.0
  Zn2+  Zn26  1  0.37647950  0.20915981  0.96363623  1.0
  Zn2+  Zn27  1  0.87500000  0.20738000  0.63115000  1.0
  Zn2+  Zn28  1  0.87500000  0.20738000  0.29781667  1.0
  Zn2+  Zn29  1  0.87536463  0.20903969  0.96341884  1.0
  Zn2+  Zn30  1  0.37310991  0.29465014  0.46539429  1.0
  Zn2+  Zn31  1  0.37500000  0.29262000  0.13115000  1.0
  Zn2+  Zn32  1  0.37500000  0.29262000  0.79781667  1.0
  Zn2+  Zn33  1  0.87243609  0.29378961  0.46526753  1.0
  Zn2+  Zn34  1  0.87654965  0.29155127  0.13199112  1.0
  Zn2+  Zn35  1  0.87280774  0.29141308  0.79299230  1.0
  Zn2+  Zn36  1  0.12500000  0.79262000  0.53551667  1.0
  Zn2+  Zn37  1  0.12456941  0.79472742  0.20135940  1.0
  Zn2+  Zn38  1  0.12500000  0.79262000  0.86885000  1.0
  Zn2+  Zn39  1  0.62500000  0.79262000  0.53551667  1.0
  Zn2+  Zn40  1  0.62500000  0.79262000  0.20218333  1.0
  Zn2+  Zn41  1  0.62500000  0.79262000  0.86885000  1.0
  Zn2+  Zn42  1  0.12033256  0.70917094  0.70244391  1.0
  Zn2+  Zn43  1  0.12500000  0.70738000  0.36885000  1.0
  Zn2+  Zn44  1  0.12715818  0.70806547  0.03482573  1.0
  Zn2+  Zn45  1  0.62584340  0.70607664  0.70227092  1.0
  Zn2+  Zn46  1  0.62500000  0.70738000  0.36885000  1.0
  Zn2+  Zn47  1  0.62500000  0.70738000  0.03551667  1.0
  S6+  S48  1  0.37459469  0.63876679  0.70596810  1.0
  S6+  S49  1  0.37500000  0.64110000  0.37076667  1.0
  S6+  S50  1  0.37480805  0.64165614  0.03534534  1.0
  S6+  S51  1  0.87322383  0.64316263  0.70493663  1.0
  S6+  S52  1  0.87500000  0.64110000  0.37076667  1.0
  S6+  S53  1  0.87199335  0.64042766  0.03330949  1.0
  S6+  S54  1  0.37094056  0.85827450  0.53760348  1.0
  S6+  S55  1  0.37500000  0.85890000  0.20410000  1.0
  S6+  S56  1  0.37500000  0.85890000  0.87076667  1.0
  S6+  S57  1  0.87500000  0.85890000  0.53743333  1.0
  S6+  S58  1  0.87500000  0.85890000  0.20410000  1.0
  S6+  S59  1  0.87500000  0.85890000  0.87076667  1.0
  S6+  S60  1  0.12500000  0.35890000  0.46256667  1.0
  S6+  S61  1  0.13027177  0.35684058  0.12889832  1.0
  S6+  S62  1  0.12500000  0.35890000  0.79590000  1.0
  S6+  S63  1  0.62500000  0.35890000  0.46256667  1.0
  S6+  S64  1  0.62414293  0.36172687  0.12734220  1.0
  S6+  S65  1  0.62669145  0.36026975  0.79752238  1.0
  S6+  S66  1  0.12500000  0.14110000  0.62923333  1.0
  S6+  S67  1  0.12500000  0.14110000  0.29590000  1.0
  S6+  S68  1  0.12500000  0.14110000  0.96256667  1.0
  S6+  S69  1  0.62500000  0.14110000  0.62923333  1.0
  S6+  S70  1  0.62500000  0.14110000  0.29590000  1.0
  S6+  S71  1  0.62500000  0.14110000  0.96256667  1.0
  O2-  O72  1  0.21875000  0.26480000  0.62566667  1.0
  O2-  O73  1  0.21988403  0.26730858  0.29394334  1.0
  O2-  O74  1  0.21555016  0.26256858  0.95658824  1.0
  O2-  O75  1  0.71875000  0.26480000  0.62566667  1.0
  O2-  O76  1  0.71875000  0.26480000  0.29233333  1.0
  O2-  O77  1  0.71875000  0.26480000  0.95900000  1.0
  O2-  O78  1  0.03125000  0.23520000  0.45900000  1.0
  O2-  O79  1  0.03445881  0.23339845  0.12832830  1.0
  O2-  O80  1  0.03125000  0.23520000  0.79233333  1.0
  O2-  O81  1  0.52954594  0.23279507  0.45568599  1.0
  O2-  O82  1  0.53125000  0.23520000  0.12566667  1.0
  O2-  O83  1  0.52945963  0.23515209  0.79435317  1.0
  O2-  O84  1  0.46875000  0.73520000  0.54100000  1.0
  O2-  O85  1  0.46875000  0.73520000  0.20766667  1.0
  O2-  O86  1  0.46781875  0.73201734  0.87092983  1.0
  O2-  O87  1  0.96875000  0.73520000  0.54100000  1.0
  O2-  O88  1  0.96875000  0.73520000  0.20766667  1.0
  O2-  O89  1  0.96875000  0.73520000  0.87433333  1.0
  O2-  O90  1  0.28125000  0.76480000  0.70766667  1.0
  O2-  O91  1  0.28125000  0.76480000  0.37433333  1.0
  O2-  O92  1  0.28125000  0.76480000  0.04100000  1.0
  O2-  O93  1  0.78125000  0.76480000  0.70766667  1.0
  O2-  O94  1  0.78125000  0.76480000  0.37433333  1.0
  O2-  O95  1  0.78125000  0.76480000  0.04100000  1.0
  O2-  O96  1  0.28125000  0.73520000  0.54100000  1.0
  O2-  O97  1  0.28125000  0.73520000  0.20766667  1.0
  O2-  O98  1  0.28125000  0.73520000  0.87433333  1.0
  O2-  O99  1  0.78125000  0.73520000  0.54100000  1.0
  O2-  O100  1  0.78125000  0.73520000  0.20766667  1.0
  O2-  O101  1  0.78125000  0.73520000  0.87433333  1.0
  O2-  O102  1  0.46875000  0.76480000  0.70766667  1.0
  O2-  O103  1  0.46875000  0.76480000  0.37433333  1.0
  O2-  O104  1  0.46774539  0.76710868  0.04116787  1.0
  O2-  O105  1  0.96875000  0.76480000  0.70766667  1.0
  O2-  O106  1  0.96875000  0.76480000  0.37433333  1.0
  O2-  O107  1  0.96875000  0.76480000  0.04100000  1.0
  O2-  O108  1  0.03125000  0.26480000  0.62566667  1.0
  O2-  O109  1  0.03125000  0.26480000  0.29233333  1.0
  O2-  O110  1  0.03125000  0.26480000  0.95900000  1.0
  O2-  O111  1  0.53125000  0.26480000  0.62566667  1.0
  O2-  O112  1  0.53125000  0.26480000  0.29233333  1.0
  O2-  O113  1  0.53125000  0.26480000  0.95900000  1.0
  O2-  O114  1  0.21875000  0.23520000  0.45900000  1.0
  O2-  O115  1  0.21875000  0.23520000  0.12566667  1.0
  O2-  O116  1  0.21875000  0.23520000  0.79233333  1.0
  O2-  O117  1  0.71875000  0.23520000  0.45900000  1.0
  O2-  O118  1  0.71875000  0.23520000  0.12566667  1.0
  O2-  O119  1  0.71875000  0.23520000  0.79233333  1.0
  O2-  O120  1  0.37076529  0.52175039  0.65177147  1.0
  O2-  O121  1  0.37500000  0.52390000  0.31776667  1.0
  O2-  O122  1  0.37500000  0.52390000  0.98443333  1.0
  O2-  O123  1  0.87500000  0.52390000  0.65110000  1.0
  O2-  O124  1  0.87500000  0.52390000  0.31776667  1.0
  O2-  O125  1  0.87500000  0.52390000  0.98443333  1.0
  O2-  O126  1  0.37500000  0.97610000  0.48443333  1.0
  O2-  O127  1  0.37260564  0.97929012  0.15239829  1.0
  O2-  O128  1  0.37500000  0.97610000  0.81776667  1.0
  O2-  O129  1  0.87500000  0.97610000  0.48443333  1.0
  O2-  O130  1  0.87500000  0.97610000  0.15110000  1.0
  O2-  O131  1  0.87500000  0.97610000  0.81776667  1.0
  O2-  O132  1  0.12234314  0.47978894  0.51722107  1.0
  O2-  O133  1  0.12500000  0.47610000  0.18223333  1.0
  O2-  O134  1  0.12549286  0.47487449  0.84856066  1.0
  O2-  O135  1  0.62171512  0.47437770  0.51451424  1.0
  O2-  O136  1  0.62500000  0.47610000  0.18223333  1.0
  O2-  O137  1  0.62500000  0.47610000  0.84890000  1.0
  O2-  O138  1  0.12500000  0.02390000  0.68223333  1.0
  O2-  O139  1  0.12500000  0.02390000  0.34890000  1.0
  O2-  O140  1  0.12500000  0.02390000  0.01556667  1.0
  O2-  O141  1  0.62500000  0.02390000  0.68223333  1.0
  O2-  O142  1  0.62500000  0.02390000  0.34890000  1.0
  O2-  O143  1  0.62500000  0.02390000  0.01556667  1.0
  O2-  O144  1  0.37500000  0.96200000  0.59326667  1.0
  O2-  O145  1  0.37500000  0.96200000  0.25993333  1.0
  O2-  O146  1  0.37500000  0.96200000  0.92660000  1.0
  O2-  O147  1  0.87515017  0.95875633  0.59276358  1.0
  O2-  O148  1  0.87713131  0.96487727  0.26000263  1.0
  O2-  O149  1  0.87500000  0.96200000  0.92660000  1.0
  O2-  O150  1  0.37238683  0.54540240  0.42820910  1.0
  O2-  O151  1  0.37500000  0.53800000  0.09326667  1.0
  O2-  O152  1  0.37500000  0.53800000  0.75993333  1.0
  O2-  O153  1  0.87500000  0.53800000  0.42660000  1.0
  O2-  O154  1  0.87215092  0.54357291  0.09419218  1.0
  O2-  O155  1  0.87866922  0.53889688  0.75967201  1.0
  O2-  O156  1  0.12500000  0.03800000  0.57340000  1.0
  O2-  O157  1  0.12206867  0.04449603  0.23911281  1.0
  O2-  O158  1  0.12500000  0.03800000  0.90673333  1.0
  O2-  O159  1  0.62500000  0.03800000  0.57340000  1.0
  O2-  O160  1  0.62500000  0.03800000  0.24006667  1.0
  O2-  O161  1  0.62500000  0.03800000  0.90673333  1.0
  O2-  O162  1  0.12473286  0.46265680  0.73551749  1.0
  O2-  O163  1  0.12500000  0.46200000  0.40673333  1.0
  O2-  O164  1  0.12500000  0.46200000  0.07340000  1.0
  O2-  O165  1  0.62500000  0.46200000  0.74006667  1.0
  O2-  O166  1  0.62500000  0.46200000  0.40673333  1.0
  O2-  O167  1  0.62733762  0.46171487  0.07251922  1.0
  F-  F168  1  0.37500000  0.13400000  0.71703333  1.0
  F-  F169  1  0.37500000  0.13400000  0.38370000  1.0
  F-  F170  1  0.37500000  0.13400000  0.05036667  1.0
  F-  F171  1  0.87500000  0.13400000  0.71703333  1.0
  F-  F172  1  0.87500000  0.13400000  0.38370000  1.0
  F-  F173  1  0.87500000  0.13400000  0.05036667  1.0
  F-  F174  1  0.37500000  0.36600000  0.55036667  1.0
  F-  F175  1  0.37500000  0.36600000  0.21703333  1.0
  F-  F176  1  0.37567400  0.36632060  0.88660048  1.0
  F-  F177  1  0.87500000  0.36600000  0.55036667  1.0
  F-  F178  1  0.87500000  0.36600000  0.21703333  1.0
  F-  F179  1  0.87500000  0.36600000  0.88370000  1.0
  F-  F180  1  0.12871376  0.86705256  0.44972745  1.0
  F-  F181  1  0.12500000  0.86600000  0.11630000  1.0
  F-  F182  1  0.12500000  0.86600000  0.78296667  1.0
  F-  F183  1  0.62732726  0.86583233  0.45101127  1.0
  F-  F184  1  0.62500000  0.86600000  0.11630000  1.0
  F-  F185  1  0.62500000  0.86600000  0.78296667  1.0
  F-  F186  1  0.12500000  0.63400000  0.61630000  1.0
  F-  F187  1  0.12500000  0.63400000  0.28296667  1.0
  F-  F188  1  0.12500000  0.63400000  0.94963333  1.0
  F-  F189  1  0.62500000  0.63400000  0.61630000  1.0
  F-  F190  1  0.62795611  0.63574692  0.28596130  1.0
  F-  F191  1  0.62861897  0.63326543  0.94981960  1.0
