# generated using pymatgen
data_LiZnSO4F
_symmetry_space_group_name_H-M   'P 1'
_cell_length_a   22.31516321
_cell_length_b   12.71943737
_cell_length_c   7.45505576
_cell_angle_alpha   90.00000000
_cell_angle_beta   90.00000000
_cell_angle_gamma   90.00000000
_symmetry_Int_Tables_number   1
_chemical_formula_structural   LiZnSO4F
_chemical_formula_sum   'Li24 Zn24 S24 O96 F24'
_cell_volume   2116.01559866
_cell_formula_units_Z   24
loop_
 _symmetry_equiv_pos_site_id
 _symmetry_equiv_pos_as_xyz
  1  'x, y, z'
loop_
 _atom_type_symbol
 _atom_type_oxidation_number
  Li+  1.0
  Zn2+  2.0
  S6+  6.0
  O2-  -2.0
  F-  -1.0
loop_
 _atom_site_type_symbol
 _atom_site_label
 _atom_site_symmetry_multiplicity
 _atom_site_fract_x
 _atom_site_fract_y
 _atom_site_fract_z
 _atom_site_occupancy
  Li+  Li0  1  0.83333333  0.66666667  0.50000000  1.0
  Li+  Li1  1  0.50000000  0.66666667  0.50000000  1.0
  Li+  Li2  1  0.16666667  0.66666667  0.50000000  1.0
  Li+  Li3  1  0.83333333  0.16666667  0.50000000  1.0
  Li+  Li4  1  0.50000000  0.16666667  0.50000000  1.0
  Li+  Li5  1  0.16666667  0.16666667  0.50000000  1.0
  Li+  Li6  1  0.00000000  0.41666667  0.00000000  1.0
  Li+  Li7  1  0.66666667  0.41666667  0.00000000  1.0
  Li+  Li8  1  0.33333333  0.41666667  0.00000000  1.0
  Li+  Li9  1  0.00000000  0.91666667  0.00000000  1.0
  Li+  Li10  1  0.66666667  0.91666667  0.00000000  1.0
  Li+  Li11  1  0.33333333  0.91666667  0.00000000  1.0
  Li+  Li12  1  0.83333333  0.41666667  0.50000000  1.0
  Li+  Li13  1  0.50000000  0.41666667  0.50000000  1.0
  Li+  Li14  1  0.16666667  0.41666667  0.50000000  1.0
  Li+  Li15  1  0.83333333  0.91666667  0.50000000  1.0
  Li+  Li16  1  0.50000000  0.91666667  0.50000000  1.0
  Li+  Li17  1  0.16666667  0.91666667  0.50000000  1.0
  Li+  Li18  1  0.00000000  0.66666667  0.00000000  1.0
  Li+  Li19  1  0.66666667  0.66666667  0.00000000  1.0
  Li+  Li20  1  0.33333333  0.66666667  0.00000000  1.0
  Li+  Li21  1  0.00000000  0.16666667  0.00000000  1.0
  Li+  Li22  1  0.66666667  0.16666667  0.00000000  1.0
  Li+  Li23  1  0.33333333  0.16666667  0.00000000  1.0
  Zn2+  Zn24  1  0.88115000  0.29166667  0.79262000  1.0
  Zn2+  Zn25  1  0.54781667  0.29166667  0.79262000  1.0
  Zn2+  Zn26  1  0.21448333  0.29166667  0.79262000  1.0
  Zn2+  Zn27  1  0.88115000  0.79166667  0.79262000  1.0
  Zn2+  Zn28  1  0.54781667  0.79166667  0.79262000  1.0
  Zn2+  Zn29  1  0.21448333  0.79166667  0.79262000  1.0
  Zn2+  Zn30  1  0.71448333  0.29166667  0.70738000  1.0
  Zn2+  Zn31  1  0.38115000  0.29166667  0.70738000  1.0
  Zn2+  Zn32  1  0.04781667  0.29166667  0.70738000  1.0
  Zn2+  Zn33  1  0.71448333  0.79166667  0.70738000  1.0
  Zn2+  Zn34  1  0.38115000  0.79166667  0.70738000  1.0
  Zn2+  Zn35  1  0.04781667  0.79166667  0.70738000  1.0
  Zn2+  Zn36  1  0.78551667  0.54166667  0.20738000  1.0
  Zn2+  Zn37  1  0.45218333  0.54166667  0.20738000  1.0
  Zn2+  Zn38  1  0.11885000  0.54166667  0.20738000  1.0
  Zn2+  Zn39  1  0.78551667  0.04166667  0.20738000  1.0
  Zn2+  Zn40  1  0.45218333  0.04166667  0.20738000  1.0
  Zn2+  Zn41  1  0.11885000  0.04166667  0.20738000  1.0
  Zn2+  Zn42  1  0.95218333  0.54166667  0.29262000  1.0
  Zn2+  Zn43  1  0.61885000  0.54166667  0.29262000  1.0
  Zn2+  Zn44  1  0.28551667  0.54166667  0.29262000  1.0
  Zn2+  Zn45  1  0.95218333  0.04166667  0.29262000  1.0
  Zn2+  Zn46  1  0.61885000  0.04166667  0.29262000  1.0
  Zn2+  Zn47  1  0.28551667  0.04166667  0.29262000  1.0
  S6+  S48  1  0.95410000  0.29166667  0.35890000  1.0
  S6+  S49  1  0.62076667  0.29166667  0.35890000  1.0
  S6+  S50  1  0.28743333  0.29166667  0.35890000  1.0
  S6+  S51  1  0.95410000  0.79166667  0.35890000  1.0
  S6+  S52  1  0.62076667  0.79166667  0.35890000  1.0
  S6+  S53  1  0.28743333  0.79166667  0.35890000  1.0
  S6+  S54  1  0.78743333  0.29166667  0.14110000  1.0
  S6+  S55  1  0.45410000  0.29166667  0.14110000  1.0
  S6+  S56  1  0.12076667  0.29166667  0.14110000  1.0
  S6+  S57  1  0.78743333  0.79166667  0.14110000  1.0
  S6+  S58  1  0.45410000  0.79166667  0.14110000  1.0
  S6+  S59  1  0.12076667  0.79166667  0.14110000  1.0
  S6+  S60  1  0.71256667  0.54166667  0.64110000  1.0
  S6+  S61  1  0.37923333  0.54166667  0.64110000  1.0
  S6+  S62  1  0.04590000  0.54166667  0.64110000  1.0
  S6+  S63  1  0.71256667  0.04166667  0.64110000  1.0
  S6+  S64  1  0.37923333  0.04166667  0.64110000  1.0
  S6+  S65  1  0.04590000  0.04166667  0.64110000  1.0
  S6+  S66  1  0.87923333  0.54166667  0.85890000  1.0
  S6+  S67  1  0.54590000  0.54166667  0.85890000  1.0
  S6+  S68  1  0.21256667  0.54166667  0.85890000  1.0
  S6+  S69  1  0.87923333  0.04166667  0.85890000  1.0
  S6+  S70  1  0.54590000  0.04166667  0.85890000  1.0
  S6+  S71  1  0.21256667  0.04166667  0.85890000  1.0
  O2-  O72  1  0.87566667  0.44791667  0.73520000  1.0
  O2-  O73  1  0.54233333  0.44791667  0.73520000  1.0
  O2-  O74  1  0.20900000  0.44791667  0.73520000  1.0
  O2-  O75  1  0.87566667  0.94791667  0.73520000  1.0
  O2-  O76  1  0.54233333  0.94791667  0.73520000  1.0
  O2-  O77  1  0.20900000  0.94791667  0.73520000  1.0
  O2-  O78  1  0.70900000  0.63541667  0.76480000  1.0
  O2-  O79  1  0.37566667  0.63541667  0.76480000  1.0
  O2-  O80  1  0.04233333  0.63541667  0.76480000  1.0
  O2-  O81  1  0.70900000  0.13541667  0.76480000  1.0
  O2-  O82  1  0.37566667  0.13541667  0.76480000  1.0
  O2-  O83  1  0.04233333  0.13541667  0.76480000  1.0
  O2-  O84  1  0.79100000  0.19791667  0.26480000  1.0
  O2-  O85  1  0.45766667  0.19791667  0.26480000  1.0
  O2-  O86  1  0.12433333  0.19791667  0.26480000  1.0
  O2-  O87  1  0.79100000  0.69791667  0.26480000  1.0
  O2-  O88  1  0.45766667  0.69791667  0.26480000  1.0
  O2-  O89  1  0.12433333  0.69791667  0.26480000  1.0
  O2-  O90  1  0.95766667  0.38541667  0.23520000  1.0
  O2-  O91  1  0.62433333  0.38541667  0.23520000  1.0
  O2-  O92  1  0.29100000  0.38541667  0.23520000  1.0
  O2-  O93  1  0.95766667  0.88541667  0.23520000  1.0
  O2-  O94  1  0.62433333  0.88541667  0.23520000  1.0
  O2-  O95  1  0.29100000  0.88541667  0.23520000  1.0
  O2-  O96  1  0.79100000  0.38541667  0.26480000  1.0
  O2-  O97  1  0.45766667  0.38541667  0.26480000  1.0
  O2-  O98  1  0.12433333  0.38541667  0.26480000  1.0
  O2-  O99  1  0.79100000  0.88541667  0.26480000  1.0
  O2-  O100  1  0.45766667  0.88541667  0.26480000  1.0
  O2-  O101  1  0.12433333  0.88541667  0.26480000  1.0
  O2-  O102  1  0.95766667  0.19791667  0.23520000  1.0
  O2-  O103  1  0.62433333  0.19791667  0.23520000  1.0
  O2-  O104  1  0.29100000  0.19791667  0.23520000  1.0
  O2-  O105  1  0.95766667  0.69791667  0.23520000  1.0
  O2-  O106  1  0.62433333  0.69791667  0.23520000  1.0
  O2-  O107  1  0.29100000  0.69791667  0.23520000  1.0
  O2-  O108  1  0.87566667  0.63541667  0.73520000  1.0
  O2-  O109  1  0.54233333  0.63541667  0.73520000  1.0
  O2-  O110  1  0.20900000  0.63541667  0.73520000  1.0
  O2-  O111  1  0.87566667  0.13541667  0.73520000  1.0
  O2-  O112  1  0.54233333  0.13541667  0.73520000  1.0
  O2-  O113  1  0.20900000  0.13541667  0.73520000  1.0
  O2-  O114  1  0.70900000  0.44791667  0.76480000  1.0
  O2-  O115  1  0.37566667  0.44791667  0.76480000  1.0
  O2-  O116  1  0.04233333  0.44791667  0.76480000  1.0
  O2-  O117  1  0.70900000  0.94791667  0.76480000  1.0
  O2-  O118  1  0.37566667  0.94791667  0.76480000  1.0
  O2-  O119  1  0.04233333  0.94791667  0.76480000  1.0
  O2-  O120  1  0.90110000  0.29166667  0.47610000  1.0
  O2-  O121  1  0.56776667  0.29166667  0.47610000  1.0
  O2-  O122  1  0.23443333  0.29166667  0.47610000  1.0
  O2-  O123  1  0.90110000  0.79166667  0.47610000  1.0
  O2-  O124  1  0.56776667  0.79166667  0.47610000  1.0
  O2-  O125  1  0.23443333  0.79166667  0.47610000  1.0
  O2-  O126  1  0.73443333  0.29166667  0.02390000  1.0
  O2-  O127  1  0.40110000  0.29166667  0.02390000  1.0
  O2-  O128  1  0.06776667  0.29166667  0.02390000  1.0
  O2-  O129  1  0.73443333  0.79166667  0.02390000  1.0
  O2-  O130  1  0.40110000  0.79166667  0.02390000  1.0
  O2-  O131  1  0.06776667  0.79166667  0.02390000  1.0
  O2-  O132  1  0.76556667  0.54166667  0.52390000  1.0
  O2-  O133  1  0.43223333  0.54166667  0.52390000  1.0
  O2-  O134  1  0.09890000  0.54166667  0.52390000  1.0
  O2-  O135  1  0.76556667  0.04166667  0.52390000  1.0
  O2-  O136  1  0.43223333  0.04166667  0.52390000  1.0
  O2-  O137  1  0.09890000  0.04166667  0.52390000  1.0
  O2-  O138  1  0.93223333  0.54166667  0.97610000  1.0
  O2-  O139  1  0.59890000  0.54166667  0.97610000  1.0
  O2-  O140  1  0.26556667  0.54166667  0.97610000  1.0
  O2-  O141  1  0.93223333  0.04166667  0.97610000  1.0
  O2-  O142  1  0.59890000  0.04166667  0.97610000  1.0
  O2-  O143  1  0.26556667  0.04166667  0.97610000  1.0
  O2-  O144  1  0.84326667  0.29166667  0.03800000  1.0
  O2-  O145  1  0.50993333  0.29166667  0.03800000  1.0
  O2-  O146  1  0.17660000  0.29166667  0.03800000  1.0
  O2-  O147  1  0.84326667  0.79166667  0.03800000  1.0
  O2-  O148  1  0.50993333  0.79166667  0.03800000  1.0
  O2-  O149  1  0.17660000  0.79166667  0.03800000  1.0
  O2-  O150  1  0.67660000  0.29166667  0.46200000  1.0
  O2-  O151  1  0.34326667  0.29166667  0.46200000  1.0
  O2-  O152  1  0.00993333  0.29166667  0.46200000  1.0
  O2-  O153  1  0.67660000  0.79166667  0.46200000  1.0
  O2-  O154  1  0.34326667  0.79166667  0.46200000  1.0
  O2-  O155  1  0.00993333  0.79166667  0.46200000  1.0
  O2-  O156  1  0.82340000  0.54166667  0.96200000  1.0
  O2-  O157  1  0.49006667  0.54166667  0.96200000  1.0
  O2-  O158  1  0.15673333  0.54166667  0.96200000  1.0
  O2-  O159  1  0.82340000  0.04166667  0.96200000  1.0
  O2-  O160  1  0.49006667  0.04166667  0.96200000  1.0
  O2-  O161  1  0.15673333  0.04166667  0.96200000  1.0
  O2-  O162  1  0.99006667  0.54166667  0.53800000  1.0
  O2-  O163  1  0.65673333  0.54166667  0.53800000  1.0
  O2-  O164  1  0.32340000  0.54166667  0.53800000  1.0
  O2-  O165  1  0.99006667  0.04166667  0.53800000  1.0
  O2-  O166  1  0.65673333  0.04166667  0.53800000  1.0
  O2-  O167  1  0.32340000  0.04166667  0.53800000  1.0
  F-  F168  1  0.96703333  0.29166667  0.86600000  1.0
  F-  F169  1  0.63370000  0.29166667  0.86600000  1.0
  F-  F170  1  0.30036667  0.29166667  0.86600000  1.0
  F-  F171  1  0.96703333  0.79166667  0.86600000  1.0
  F-  F172  1  0.63370000  0.79166667  0.86600000  1.0
  F-  F173  1  0.30036667  0.79166667  0.86600000  1.0
  F-  F174  1  0.80036667  0.29166667  0.63400000  1.0
  F-  F175  1  0.46703333  0.29166667  0.63400000  1.0
  F-  F176  1  0.13370000  0.29166667  0.63400000  1.0
  F-  F177  1  0.80036667  0.79166667  0.63400000  1.0
  F-  F178  1  0.46703333  0.79166667  0.63400000  1.0
  F-  F179  1  0.13370000  0.79166667  0.63400000  1.0
  F-  F180  1  0.69963333  0.54166667  0.13400000  1.0
  F-  F181  1  0.36630000  0.54166667  0.13400000  1.0
  F-  F182  1  0.03296667  0.54166667  0.13400000  1.0
  F-  F183  1  0.69963333  0.04166667  0.13400000  1.0
  F-  F184  1  0.36630000  0.04166667  0.13400000  1.0
  F-  F185  1  0.03296667  0.04166667  0.13400000  1.0
  F-  F186  1  0.86630000  0.54166667  0.36600000  1.0
  F-  F187  1  0.53296667  0.54166667  0.36600000  1.0
  F-  F188  1  0.19963333  0.54166667  0.36600000  1.0
  F-  F189  1  0.86630000  0.04166667  0.36600000  1.0
  F-  F190  1  0.53296667  0.04166667  0.36600000  1.0
  F-  F191  1  0.19963333  0.04166667  0.36600000  1.0
