# generated using pymatgen
data_LiZnSO4F
_symmetry_space_group_name_H-M   'P 1'
_cell_length_a   12.65990000
_cell_length_b   22.21071000
_cell_length_c   7.42016000
_cell_angle_alpha   90.00000000
_cell_angle_beta   90.00000000
_cell_angle_gamma   90.00000000
_symmetry_Int_Tables_number   1
_chemical_formula_structural   LiZnSO4F
_chemical_formula_sum   'Li24 Zn24 S24 O96 F24'
_cell_volume   2086.44041672
_cell_formula_units_Z   24
loop_
 _symmetry_equiv_pos_site_id
 _symmetry_equiv_pos_as_xyz
  1  'x, y, z'
loop_
 _atom_type_symbol
 _atom_type_oxidation_number
  Li+  1.0
  Zn2+  2.0
  S6+  6.0
  O2-  -2.0
  F-  -1.0
loop_
 _atom_site_type_symbol
 _atom_site_label
 _atom_site_symmetry_multiplicity
 _atom_site_fract_x
 _atom_site_fract_y
 _atom_site_fract_z
 _atom_site_occupancy
  Li+  Li1  1  0.00000000  0.16666667  0.50000000  1.0
  Li+  Li1  1  0.00000000  0.50000000  0.50000000  1.0
  Li+  Li1  1  0.00000000  0.83333333  0.50000000  1.0
  Li+  Li1  1  0.50000000  0.16666667  0.50000000  1.0
  Li+  Li1  1  0.50000000  0.50000000  0.50000000  1.0
  Li+  Li1  1  0.50000000  0.83333333  0.50000000  1.0
  Li+  Li1  1  0.25000000  0.00000000  0.00000000  1.0
  Li+  Li1  1  0.25000000  0.33333333  0.00000000  1.0
  Li+  Li1  1  0.25000000  0.66666667  0.00000000  1.0
  Li+  Li1  1  0.75000000  0.00000000  0.00000000  1.0
  Li+  Li1  1  0.75000000  0.33333333  0.00000000  1.0
  Li+  Li1  1  0.75000000  0.66666667  0.00000000  1.0
  Li+  Li1  1  0.25000000  0.16666667  0.50000000  1.0
  Li+  Li1  1  0.25000000  0.50000000  0.50000000  1.0
  Li+  Li1  1  0.25000000  0.83333333  0.50000000  1.0
  Li+  Li1  1  0.75000000  0.16666667  0.50000000  1.0
  Li+  Li1  1  0.75000000  0.50000000  0.50000000  1.0
  Li+  Li1  1  0.75000000  0.83333333  0.50000000  1.0
  Li+  Li1  1  0.00000000  0.00000000  0.00000000  1.0
  Li+  Li1  1  0.00000000  0.33333333  0.00000000  1.0
  Li+  Li1  1  0.00000000  0.66666667  0.00000000  1.0
  Li+  Li1  1  0.50000000  0.00000000  0.00000000  1.0
  Li+  Li1  1  0.50000000  0.33333333  0.00000000  1.0
  Li+  Li1  1  0.50000000  0.66666667  0.00000000  1.0
  Zn2+  Zn1  1  0.37500000  0.11885000  0.79262000  1.0
  Zn2+  Zn1  1  0.37500000  0.45218333  0.79262000  1.0
  Zn2+  Zn1  1  0.37500000  0.78551667  0.79262000  1.0
  Zn2+  Zn1  1  0.87500000  0.11885000  0.79262000  1.0
  Zn2+  Zn1  1  0.87500000  0.45218333  0.79262000  1.0
  Zn2+  Zn1  1  0.87500000  0.78551667  0.79262000  1.0
  Zn2+  Zn1  1  0.37500000  0.28551667  0.70738000  1.0
  Zn2+  Zn1  1  0.37500000  0.61885000  0.70738000  1.0
  Zn2+  Zn1  1  0.37500000  0.95218333  0.70738000  1.0
  Zn2+  Zn1  1  0.87500000  0.28551667  0.70738000  1.0
  Zn2+  Zn1  1  0.87500000  0.61885000  0.70738000  1.0
  Zn2+  Zn1  1  0.87500000  0.95218333  0.70738000  1.0
  Zn2+  Zn1  1  0.12500000  0.21448333  0.20738000  1.0
  Zn2+  Zn1  1  0.12500000  0.54781667  0.20738000  1.0
  Zn2+  Zn1  1  0.12500000  0.88115000  0.20738000  1.0
  Zn2+  Zn1  1  0.62500000  0.21448333  0.20738000  1.0
  Zn2+  Zn1  1  0.62500000  0.54781667  0.20738000  1.0
  Zn2+  Zn1  1  0.62500000  0.88115000  0.20738000  1.0
  Zn2+  Zn1  1  0.12500000  0.04781667  0.29262000  1.0
  Zn2+  Zn1  1  0.12500000  0.38115000  0.29262000  1.0
  Zn2+  Zn1  1  0.12500000  0.71448333  0.29262000  1.0
  Zn2+  Zn1  1  0.62500000  0.04781667  0.29262000  1.0
  Zn2+  Zn1  1  0.62500000  0.38115000  0.29262000  1.0
  Zn2+  Zn1  1  0.62500000  0.71448333  0.29262000  1.0
  S6+  S1  1  0.37500000  0.04590000  0.35890000  1.0
  S6+  S1  1  0.37500000  0.37923333  0.35890000  1.0
  S6+  S1  1  0.37500000  0.71256667  0.35890000  1.0
  S6+  S1  1  0.87500000  0.04590000  0.35890000  1.0
  S6+  S1  1  0.87500000  0.37923333  0.35890000  1.0
  S6+  S1  1  0.87500000  0.71256667  0.35890000  1.0
  S6+  S1  1  0.37500000  0.21256667  0.14110000  1.0
  S6+  S1  1  0.37500000  0.54590000  0.14110000  1.0
  S6+  S1  1  0.37500000  0.87923333  0.14110000  1.0
  S6+  S1  1  0.87500000  0.21256667  0.14110000  1.0
  S6+  S1  1  0.87500000  0.54590000  0.14110000  1.0
  S6+  S1  1  0.87500000  0.87923333  0.14110000  1.0
  S6+  S1  1  0.12500000  0.28743333  0.64110000  1.0
  S6+  S1  1  0.12500000  0.62076667  0.64110000  1.0
  S6+  S1  1  0.12500000  0.95410000  0.64110000  1.0
  S6+  S1  1  0.62500000  0.28743333  0.64110000  1.0
  S6+  S1  1  0.62500000  0.62076667  0.64110000  1.0
  S6+  S1  1  0.62500000  0.95410000  0.64110000  1.0
  S6+  S1  1  0.12500000  0.12076667  0.85890000  1.0
  S6+  S1  1  0.12500000  0.45410000  0.85890000  1.0
  S6+  S1  1  0.12500000  0.78743333  0.85890000  1.0
  S6+  S1  1  0.62500000  0.12076667  0.85890000  1.0
  S6+  S1  1  0.62500000  0.45410000  0.85890000  1.0
  S6+  S1  1  0.62500000  0.78743333  0.85890000  1.0
  O2-  O1  1  0.21875000  0.12433333  0.73520000  1.0
  O2-  O1  1  0.21875000  0.45766667  0.73520000  1.0
  O2-  O1  1  0.21875000  0.79100000  0.73520000  1.0
  O2-  O1  1  0.71875000  0.12433333  0.73520000  1.0
  O2-  O1  1  0.71875000  0.45766667  0.73520000  1.0
  O2-  O1  1  0.71875000  0.79100000  0.73520000  1.0
  O2-  O1  1  0.03125000  0.29100000  0.76480000  1.0
  O2-  O1  1  0.03125000  0.62433333  0.76480000  1.0
  O2-  O1  1  0.03125000  0.95766667  0.76480000  1.0
  O2-  O1  1  0.53125000  0.29100000  0.76480000  1.0
  O2-  O1  1  0.53125000  0.62433333  0.76480000  1.0
  O2-  O1  1  0.53125000  0.95766667  0.76480000  1.0
  O2-  O1  1  0.46875000  0.20900000  0.26480000  1.0
  O2-  O1  1  0.46875000  0.54233333  0.26480000  1.0
  O2-  O1  1  0.46875000  0.87566667  0.26480000  1.0
  O2-  O1  1  0.96875000  0.20900000  0.26480000  1.0
  O2-  O1  1  0.96875000  0.54233333  0.26480000  1.0
  O2-  O1  1  0.96875000  0.87566667  0.26480000  1.0
  O2-  O1  1  0.28125000  0.04233333  0.23520000  1.0
  O2-  O1  1  0.28125000  0.37566667  0.23520000  1.0
  O2-  O1  1  0.28125000  0.70900000  0.23520000  1.0
  O2-  O1  1  0.78125000  0.04233333  0.23520000  1.0
  O2-  O1  1  0.78125000  0.37566667  0.23520000  1.0
  O2-  O1  1  0.78125000  0.70900000  0.23520000  1.0
  O2-  O1  1  0.28125000  0.20900000  0.26480000  1.0
  O2-  O1  1  0.28125000  0.54233333  0.26480000  1.0
  O2-  O1  1  0.28125000  0.87566667  0.26480000  1.0
  O2-  O1  1  0.78125000  0.20900000  0.26480000  1.0
  O2-  O1  1  0.78125000  0.54233333  0.26480000  1.0
  O2-  O1  1  0.78125000  0.87566667  0.26480000  1.0
  O2-  O1  1  0.46875000  0.04233333  0.23520000  1.0
  O2-  O1  1  0.46875000  0.37566667  0.23520000  1.0
  O2-  O1  1  0.46875000  0.70900000  0.23520000  1.0
  O2-  O1  1  0.96875000  0.04233333  0.23520000  1.0
  O2-  O1  1  0.96875000  0.37566667  0.23520000  1.0
  O2-  O1  1  0.96875000  0.70900000  0.23520000  1.0
  O2-  O1  1  0.03125000  0.12433333  0.73520000  1.0
  O2-  O1  1  0.03125000  0.45766667  0.73520000  1.0
  O2-  O1  1  0.03125000  0.79100000  0.73520000  1.0
  O2-  O1  1  0.53125000  0.12433333  0.73520000  1.0
  O2-  O1  1  0.53125000  0.45766667  0.73520000  1.0
  O2-  O1  1  0.53125000  0.79100000  0.73520000  1.0
  O2-  O1  1  0.21875000  0.29100000  0.76480000  1.0
  O2-  O1  1  0.21875000  0.62433333  0.76480000  1.0
  O2-  O1  1  0.21875000  0.95766667  0.76480000  1.0
  O2-  O1  1  0.71875000  0.29100000  0.76480000  1.0
  O2-  O1  1  0.71875000  0.62433333  0.76480000  1.0
  O2-  O1  1  0.71875000  0.95766667  0.76480000  1.0
  O2-  O2  1  0.37500000  0.09890000  0.47610000  1.0
  O2-  O2  1  0.37500000  0.43223333  0.47610000  1.0
  O2-  O2  1  0.37500000  0.76556667  0.47610000  1.0
  O2-  O2  1  0.87500000  0.09890000  0.47610000  1.0
  O2-  O2  1  0.87500000  0.43223333  0.47610000  1.0
  O2-  O2  1  0.87500000  0.76556667  0.47610000  1.0
  O2-  O2  1  0.37500000  0.26556667  0.02390000  1.0
  O2-  O2  1  0.37500000  0.59890000  0.02390000  1.0
  O2-  O2  1  0.37500000  0.93223333  0.02390000  1.0
  O2-  O2  1  0.87500000  0.26556667  0.02390000  1.0
  O2-  O2  1  0.87500000  0.59890000  0.02390000  1.0
  O2-  O2  1  0.87500000  0.93223333  0.02390000  1.0
  O2-  O2  1  0.12500000  0.23443333  0.52390000  1.0
  O2-  O2  1  0.12500000  0.56776667  0.52390000  1.0
  O2-  O2  1  0.12500000  0.90110000  0.52390000  1.0
  O2-  O2  1  0.62500000  0.23443333  0.52390000  1.0
  O2-  O2  1  0.62500000  0.56776667  0.52390000  1.0
  O2-  O2  1  0.62500000  0.90110000  0.52390000  1.0
  O2-  O2  1  0.12500000  0.06776667  0.97610000  1.0
  O2-  O2  1  0.12500000  0.40110000  0.97610000  1.0
  O2-  O2  1  0.12500000  0.73443333  0.97610000  1.0
  O2-  O2  1  0.62500000  0.06776667  0.97610000  1.0
  O2-  O2  1  0.62500000  0.40110000  0.97610000  1.0
  O2-  O2  1  0.62500000  0.73443333  0.97610000  1.0
  O2-  O3  1  0.37500000  0.15673333  0.03800000  1.0
  O2-  O3  1  0.37500000  0.49006667  0.03800000  1.0
  O2-  O3  1  0.37500000  0.82340000  0.03800000  1.0
  O2-  O3  1  0.87500000  0.15673333  0.03800000  1.0
  O2-  O3  1  0.87500000  0.49006667  0.03800000  1.0
  O2-  O3  1  0.87500000  0.82340000  0.03800000  1.0
  O2-  O3  1  0.37500000  0.32340000  0.46200000  1.0
  O2-  O3  1  0.37500000  0.65673333  0.46200000  1.0
  O2-  O3  1  0.37500000  0.99006667  0.46200000  1.0
  O2-  O3  1  0.87500000  0.32340000  0.46200000  1.0
  O2-  O3  1  0.87500000  0.65673333  0.46200000  1.0
  O2-  O3  1  0.87500000  0.99006667  0.46200000  1.0
  O2-  O3  1  0.12500000  0.17660000  0.96200000  1.0
  O2-  O3  1  0.12500000  0.50993333  0.96200000  1.0
  O2-  O3  1  0.12500000  0.84326667  0.96200000  1.0
  O2-  O3  1  0.62500000  0.17660000  0.96200000  1.0
  O2-  O3  1  0.62500000  0.50993333  0.96200000  1.0
  O2-  O3  1  0.62500000  0.84326667  0.96200000  1.0
  O2-  O3  1  0.12500000  0.00993333  0.53800000  1.0
  O2-  O3  1  0.12500000  0.34326667  0.53800000  1.0
  O2-  O3  1  0.12500000  0.67660000  0.53800000  1.0
  O2-  O3  1  0.62500000  0.00993333  0.53800000  1.0
  O2-  O3  1  0.62500000  0.34326667  0.53800000  1.0
  O2-  O3  1  0.62500000  0.67660000  0.53800000  1.0
  F-  F1  1  0.37500000  0.03296667  0.86600000  1.0
  F-  F1  1  0.37500000  0.36630000  0.86600000  1.0
  F-  F1  1  0.37500000  0.69963333  0.86600000  1.0
  F-  F1  1  0.87500000  0.03296667  0.86600000  1.0
  F-  F1  1  0.87500000  0.36630000  0.86600000  1.0
  F-  F1  1  0.87500000  0.69963333  0.86600000  1.0
  F-  F1  1  0.37500000  0.19963333  0.63400000  1.0
  F-  F1  1  0.37500000  0.53296667  0.63400000  1.0
  F-  F1  1  0.37500000  0.86630000  0.63400000  1.0
  F-  F1  1  0.87500000  0.19963333  0.63400000  1.0
  F-  F1  1  0.87500000  0.53296667  0.63400000  1.0
  F-  F1  1  0.87500000  0.86630000  0.63400000  1.0
  F-  F1  1  0.12500000  0.30036667  0.13400000  1.0
  F-  F1  1  0.12500000  0.63370000  0.13400000  1.0
  F-  F1  1  0.12500000  0.96703333  0.13400000  1.0
  F-  F1  1  0.62500000  0.30036667  0.13400000  1.0
  F-  F1  1  0.62500000  0.63370000  0.13400000  1.0
  F-  F1  1  0.62500000  0.96703333  0.13400000  1.0
  F-  F1  1  0.12500000  0.13370000  0.36600000  1.0
  F-  F1  1  0.12500000  0.46703333  0.36600000  1.0
  F-  F1  1  0.12500000  0.80036667  0.36600000  1.0
  F-  F1  1  0.62500000  0.13370000  0.36600000  1.0
  F-  F1  1  0.62500000  0.46703333  0.36600000  1.0
  F-  F1  1  0.62500000  0.80036667  0.36600000  1.0
