# generated using pymatgen
data_Li7ZnGa(PO4)4
_symmetry_space_group_name_H-M   'P 1'
_cell_length_a   9.87175600
_cell_length_b   10.08925000
_cell_length_c   19.53240000
_cell_angle_alpha   90.00000000
_cell_angle_beta   90.00000000
_cell_angle_gamma   90.00000000
_symmetry_Int_Tables_number   1
_chemical_formula_structural   Li7ZnGa(PO4)4
_chemical_formula_sum   'Li42 Zn6 Ga6 P24 O96'
_cell_volume   1945.39997245
_cell_formula_units_Z   6
loop_
 _symmetry_equiv_pos_site_id
 _symmetry_equiv_pos_as_xyz
  1  'x, y, z'
loop_
 _atom_type_symbol
 _atom_type_oxidation_number
  Li+  1.0
  Zn2+  2.0
  Ga3+  3.0
  P5+  5.0
  O2-  -2.0
loop_
 _atom_site_type_symbol
 _atom_site_label
 _atom_site_symmetry_multiplicity
 _atom_site_fract_x
 _atom_site_fract_y
 _atom_site_fract_z
 _atom_site_occupancy
  Li+  Li0  1  0.70000000  0.44000000  0.50000000  1.0
  Li+  Li1  1  0.70000000  0.44000000  0.16666667  1.0
  Li+  Li2  1  0.70063945  0.44680994  0.83618332  1.0
  Li+  Li3  1  0.95000000  0.06000000  0.66666667  1.0
  Li+  Li4  1  0.95000000  0.06000000  0.33333333  1.0
  Li+  Li5  1  0.95000000  0.06000000  0.00000000  1.0
  Li+  Li6  1  0.65615000  0.65890000  0.58376667  1.0
  Li+  Li7  1  0.65383839  0.65893109  0.25295129  1.0
  Li+  Li8  1  0.65615000  0.65890000  0.91710000  1.0
  Li+  Li9  1  0.09385000  0.15890000  0.74956667  1.0
  Li+  Li10  1  0.09385000  0.15890000  0.41623333  1.0
  Li+  Li11  1  0.09385000  0.15890000  0.08290000  1.0
  Li+  Li12  1  0.59385000  0.15890000  0.74956667  1.0
  Li+  Li13  1  0.59385000  0.15890000  0.41623333  1.0
  Li+  Li14  1  0.59385000  0.15890000  0.08290000  1.0
  Li+  Li15  1  0.34385000  0.34110000  0.41710000  1.0
  Li+  Li16  1  0.34385000  0.34110000  0.08376667  1.0
  Li+  Li17  1  0.34273593  0.34021427  0.74652185  1.0
  Li+  Li18  1  0.84385000  0.34110000  0.41710000  1.0
  Li+  Li19  1  0.84419723  0.34160517  0.08854678  1.0
  Li+  Li20  1  0.84841418  0.33987878  0.75276352  1.0
  Li+  Li21  1  0.40677212  0.84203335  0.58237060  1.0
  Li+  Li22  1  0.40615000  0.84110000  0.24956667  1.0
  Li+  Li23  1  0.40615000  0.84110000  0.91623333  1.0
  Li+  Li24  1  0.90615000  0.84110000  0.58290000  1.0
  Li+  Li25  1  0.90900218  0.84077873  0.25069216  1.0
  Li+  Li26  1  0.90615000  0.84110000  0.91623333  1.0
  Li+  Li27  1  0.34385000  0.34110000  0.58290000  1.0
  Li+  Li28  1  0.34385000  0.34110000  0.24956667  1.0
  Li+  Li29  1  0.34357992  0.34235469  0.91534582  1.0
  Li+  Li30  1  0.84385000  0.34110000  0.58290000  1.0
  Li+  Li31  1  0.84385000  0.34110000  0.24956667  1.0
  Li+  Li32  1  0.84385000  0.34110000  0.91623333  1.0
  Li+  Li33  1  0.41018643  0.84265425  0.41931052  1.0
  Li+  Li34  1  0.40672899  0.84030207  0.08477159  1.0
  Li+  Li35  1  0.40615000  0.84110000  0.75043333  1.0
  Li+  Li36  1  0.90615000  0.84110000  0.41710000  1.0
  Li+  Li37  1  0.90615000  0.84110000  0.08376667  1.0
  Li+  Li38  1  0.90615000  0.84110000  0.75043333  1.0
  Li+  Li39  1  0.15818496  0.66462123  0.74964005  1.0
  Li+  Li40  1  0.15755946  0.66197136  0.41770853  1.0
  Li+  Li41  1  0.15615000  0.65890000  0.08290000  1.0
  Zn2+  Zn42  1  0.65615000  0.65890000  0.74956667  1.0
  Zn2+  Zn43  1  0.65615000  0.65890000  0.41623333  1.0
  Zn2+  Zn44  1  0.65615000  0.65890000  0.08290000  1.0
  Zn2+  Zn45  1  0.09385000  0.15890000  0.58376667  1.0
  Zn2+  Zn46  1  0.09737013  0.15728537  0.25304420  1.0
  Zn2+  Zn47  1  0.09385000  0.15890000  0.91710000  1.0
  Ga3+  Ga48  1  0.15615000  0.65890000  0.58376667  1.0
  Ga3+  Ga49  1  0.15615000  0.65890000  0.25043333  1.0
  Ga3+  Ga50  1  0.15533740  0.65911382  0.91505380  1.0
  Ga3+  Ga51  1  0.59385000  0.15890000  0.58376667  1.0
  Ga3+  Ga52  1  0.59673190  0.15741356  0.24594280  1.0
  Ga3+  Ga53  1  0.59385000  0.15890000  0.91710000  1.0
  P5+  P54  1  0.15530000  0.90726000  0.66666667  1.0
  P5+  P55  1  0.15530000  0.90726000  0.33333333  1.0
  P5+  P56  1  0.15530000  0.90726000  0.00000000  1.0
  P5+  P57  1  0.65530000  0.90726000  0.66666667  1.0
  P5+  P58  1  0.66292564  0.90822836  0.33272445  1.0
  P5+  P59  1  0.65503160  0.90923070  0.99870025  1.0
  P5+  P60  1  0.09470000  0.40726000  0.66666667  1.0
  P5+  P61  1  0.09470000  0.40726000  0.33333333  1.0
  P5+  P62  1  0.09367672  0.40892661  0.99939500  1.0
  P5+  P63  1  0.59470000  0.40726000  0.66666667  1.0
  P5+  P64  1  0.59470000  0.40726000  0.33333333  1.0
  P5+  P65  1  0.59831077  0.40695903  0.00088994  1.0
  P5+  P66  1  0.34470000  0.09274000  0.50000000  1.0
  P5+  P67  1  0.34470000  0.09274000  0.16666667  1.0
  P5+  P68  1  0.34470000  0.09274000  0.83333333  1.0
  P5+  P69  1  0.84470000  0.09274000  0.50000000  1.0
  P5+  P70  1  0.84413453  0.08808767  0.16679805  1.0
  P5+  P71  1  0.84602573  0.09086239  0.83576992  1.0
  P5+  P72  1  0.40530000  0.59274000  0.50000000  1.0
  P5+  P73  1  0.40530000  0.59274000  0.16666667  1.0
  P5+  P74  1  0.40530000  0.59274000  0.83333333  1.0
  P5+  P75  1  0.90593426  0.59761895  0.49469130  1.0
  P5+  P76  1  0.90437923  0.58765373  0.15990748  1.0
  P5+  P77  1  0.90530000  0.59274000  0.83333333  1.0
  O2-  O78  1  0.09830000  0.83840000  0.60036667  1.0
  O2-  O79  1  0.09830000  0.83840000  0.26703333  1.0
  O2-  O80  1  0.09830000  0.83840000  0.93370000  1.0
  O2-  O81  1  0.59907248  0.84011448  0.60509837  1.0
  O2-  O82  1  0.59830000  0.83840000  0.26703333  1.0
  O2-  O83  1  0.59830000  0.83840000  0.93370000  1.0
  O2-  O84  1  0.15540402  0.33808363  0.73427417  1.0
  O2-  O85  1  0.15170000  0.33840000  0.39963333  1.0
  O2-  O86  1  0.15170000  0.33840000  0.06630000  1.0
  O2-  O87  1  0.65170000  0.33840000  0.73296667  1.0
  O2-  O88  1  0.65170000  0.33840000  0.39963333  1.0
  O2-  O89  1  0.65440664  0.33455283  0.06774242  1.0
  O2-  O90  1  0.40170000  0.16160000  0.43370000  1.0
  O2-  O91  1  0.40332489  0.16180041  0.10038911  1.0
  O2-  O92  1  0.40170000  0.16160000  0.76703333  1.0
  O2-  O93  1  0.90170000  0.16160000  0.43370000  1.0
  O2-  O94  1  0.90075406  0.16280801  0.09970214  1.0
  O2-  O95  1  0.90170000  0.16160000  0.76703333  1.0
  O2-  O96  1  0.34830000  0.66160000  0.56630000  1.0
  O2-  O97  1  0.34830000  0.66160000  0.23296667  1.0
  O2-  O98  1  0.34369095  0.66369426  0.90097493  1.0
  O2-  O99  1  0.84830000  0.66160000  0.56630000  1.0
  O2-  O100  1  0.84830000  0.66160000  0.23296667  1.0
  O2-  O101  1  0.84830000  0.66160000  0.89963333  1.0
  O2-  O102  1  0.40170000  0.16160000  0.56630000  1.0
  O2-  O103  1  0.40170000  0.16160000  0.23296667  1.0
  O2-  O104  1  0.40170000  0.16160000  0.89963333  1.0
  O2-  O105  1  0.90170000  0.16160000  0.56630000  1.0
  O2-  O106  1  0.90170000  0.16160000  0.23296667  1.0
  O2-  O107  1  0.90170000  0.16160000  0.89963333  1.0
  O2-  O108  1  0.35014916  0.66217709  0.43006969  1.0
  O2-  O109  1  0.34830000  0.66160000  0.10036667  1.0
  O2-  O110  1  0.34830000  0.66160000  0.76703333  1.0
  O2-  O111  1  0.84663833  0.66268015  0.43417690  1.0
  O2-  O112  1  0.84790981  0.66480404  0.10206870  1.0
  O2-  O113  1  0.84830000  0.66160000  0.76703333  1.0
  O2-  O114  1  0.09983680  0.83541319  0.74065027  1.0
  O2-  O115  1  0.09739629  0.83815706  0.39990391  1.0
  O2-  O116  1  0.09830000  0.83840000  0.06630000  1.0
  O2-  O117  1  0.59907346  0.84001044  0.73502035  1.0
  O2-  O118  1  0.59830000  0.83840000  0.39963333  1.0
  O2-  O119  1  0.59830000  0.83840000  0.06630000  1.0
  O2-  O120  1  0.15170000  0.33840000  0.60036667  1.0
  O2-  O121  1  0.15170000  0.33840000  0.26703333  1.0
  O2-  O122  1  0.15170000  0.33840000  0.93370000  1.0
  O2-  O123  1  0.65170000  0.33840000  0.60036667  1.0
  O2-  O124  1  0.65170000  0.33840000  0.26703333  1.0
  O2-  O125  1  0.65170000  0.33840000  0.93370000  1.0
  O2-  O126  1  0.11595000  0.05310000  0.66666667  1.0
  O2-  O127  1  0.11595000  0.05310000  0.33333333  1.0
  O2-  O128  1  0.11595000  0.05310000  0.00000000  1.0
  O2-  O129  1  0.61595000  0.05310000  0.66666667  1.0
  O2-  O130  1  0.61469353  0.05120502  0.33262378  1.0
  O2-  O131  1  0.61379178  0.05633611  0.00067537  1.0
  O2-  O132  1  0.13354692  0.55493510  0.66769511  1.0
  O2-  O133  1  0.13405000  0.55310000  0.33333333  1.0
  O2-  O134  1  0.13405000  0.55310000  0.00000000  1.0
  O2-  O135  1  0.63405000  0.55310000  0.66666667  1.0
  O2-  O136  1  0.63405000  0.55310000  0.33333333  1.0
  O2-  O137  1  0.63405000  0.55310000  0.00000000  1.0
  O2-  O138  1  0.38405000  0.94690000  0.50000000  1.0
  O2-  O139  1  0.38405000  0.94690000  0.16666667  1.0
  O2-  O140  1  0.38405000  0.94690000  0.83333333  1.0
  O2-  O141  1  0.88405000  0.94690000  0.50000000  1.0
  O2-  O142  1  0.88405000  0.94690000  0.16666667  1.0
  O2-  O143  1  0.88405000  0.94690000  0.83333333  1.0
  O2-  O144  1  0.36595000  0.44690000  0.50000000  1.0
  O2-  O145  1  0.36595000  0.44690000  0.16666667  1.0
  O2-  O146  1  0.36595000  0.44690000  0.83333333  1.0
  O2-  O147  1  0.86595000  0.44690000  0.50000000  1.0
  O2-  O148  1  0.86836732  0.45028255  0.16689738  1.0
  O2-  O149  1  0.86595000  0.44690000  0.83333333  1.0
  O2-  O150  1  0.18830000  0.10720000  0.50000000  1.0
  O2-  O151  1  0.18830000  0.10720000  0.16666667  1.0
  O2-  O152  1  0.18830000  0.10720000  0.83333333  1.0
  O2-  O153  1  0.68830000  0.10720000  0.50000000  1.0
  O2-  O154  1  0.68830000  0.10720000  0.16666667  1.0
  O2-  O155  1  0.68830000  0.10720000  0.83333333  1.0
  O2-  O156  1  0.06170000  0.60720000  0.50000000  1.0
  O2-  O157  1  0.06663648  0.60707484  0.16618644  1.0
  O2-  O158  1  0.06170000  0.60720000  0.83333333  1.0
  O2-  O159  1  0.56170000  0.60720000  0.50000000  1.0
  O2-  O160  1  0.56170000  0.60720000  0.16666667  1.0
  O2-  O161  1  0.56253674  0.60483690  0.83030835  1.0
  O2-  O162  1  0.31170000  0.89280000  0.66666667  1.0
  O2-  O163  1  0.31170000  0.89280000  0.33333333  1.0
  O2-  O164  1  0.31154471  0.89566480  0.00058169  1.0
  O2-  O165  1  0.81170000  0.89280000  0.66666667  1.0
  O2-  O166  1  0.81094127  0.88910591  0.33277129  1.0
  O2-  O167  1  0.81170000  0.89280000  0.00000000  1.0
  O2-  O168  1  0.43830000  0.39280000  0.66666667  1.0
  O2-  O169  1  0.43830000  0.39280000  0.33333333  1.0
  O2-  O170  1  0.43830000  0.39280000  0.00000000  1.0
  O2-  O171  1  0.93830000  0.39280000  0.66666667  1.0
  O2-  O172  1  0.93830000  0.39280000  0.33333333  1.0
  O2-  O173  1  0.93830000  0.39280000  0.00000000  1.0
