# generated using pymatgen
data_Li7ZnGa(PO4)4
_symmetry_space_group_name_H-M   'P 1'
_cell_length_a   19.71501005
_cell_length_b   9.96404787
_cell_length_c   10.18357524
_cell_angle_alpha   90.00000000
_cell_angle_beta   90.00000000
_cell_angle_gamma   90.00000000
_symmetry_Int_Tables_number   1
_chemical_formula_structural   Li7ZnGa(PO4)4
_chemical_formula_sum   'Li42 Zn6 Ga6 P24 O96'
_cell_volume   2000.47479847
_cell_formula_units_Z   6
loop_
 _symmetry_equiv_pos_site_id
 _symmetry_equiv_pos_as_xyz
  1  'x, y, z'
loop_
 _atom_type_symbol
 _atom_type_oxidation_number
  Li+  1.0
  Zn2+  2.0
  Ga3+  3.0
  P5+  5.0
  O2-  -2.0
loop_
 _atom_site_type_symbol
 _atom_site_label
 _atom_site_symmetry_multiplicity
 _atom_site_fract_x
 _atom_site_fract_y
 _atom_site_fract_z
 _atom_site_occupancy
  Li+  Li0  1  0.75000000  0.96666667  0.56000000  1.0
  Li+  Li1  1  0.41666667  0.96666667  0.56000000  1.0
  Li+  Li2  1  0.08333333  0.96666667  0.56000000  1.0
  Li+  Li3  1  0.91666667  0.71666667  0.94000000  1.0
  Li+  Li4  1  0.58333333  0.71666667  0.94000000  1.0
  Li+  Li5  1  0.25000000  0.71666667  0.94000000  1.0
  Li+  Li6  1  0.83376667  0.01051667  0.34110000  1.0
  Li+  Li7  1  0.50043333  0.01051667  0.34110000  1.0
  Li+  Li8  1  0.16710000  0.01051667  0.34110000  1.0
  Li+  Li9  1  0.99956667  0.57281667  0.84110000  1.0
  Li+  Li10  1  0.66623333  0.57281667  0.84110000  1.0
  Li+  Li11  1  0.33290000  0.57281667  0.84110000  1.0
  Li+  Li12  1  0.99956667  0.07281667  0.84110000  1.0
  Li+  Li13  1  0.66623333  0.07281667  0.84110000  1.0
  Li+  Li14  1  0.33290000  0.07281667  0.84110000  1.0
  Li+  Li15  1  0.66710000  0.32281667  0.65890000  1.0
  Li+  Li16  1  0.33376667  0.32281667  0.65890000  1.0
  Li+  Li17  1  0.00043333  0.32281667  0.65890000  1.0
  Li+  Li18  1  0.66710000  0.82281667  0.65890000  1.0
  Li+  Li19  1  0.33376667  0.82281667  0.65890000  1.0
  Li+  Li20  1  0.00043333  0.82281667  0.65890000  1.0
  Li+  Li21  1  0.83290000  0.26051667  0.15890000  1.0
  Li+  Li22  1  0.49956667  0.26051667  0.15890000  1.0
  Li+  Li23  1  0.16623333  0.26051667  0.15890000  1.0
  Li+  Li24  1  0.83290000  0.76051667  0.15890000  1.0
  Li+  Li25  1  0.49956667  0.76051667  0.15890000  1.0
  Li+  Li26  1  0.16623333  0.76051667  0.15890000  1.0
  Li+  Li27  1  0.83290000  0.32281667  0.65890000  1.0
  Li+  Li28  1  0.49956667  0.32281667  0.65890000  1.0
  Li+  Li29  1  0.16623333  0.32281667  0.65890000  1.0
  Li+  Li30  1  0.83290000  0.82281667  0.65890000  1.0
  Li+  Li31  1  0.49956667  0.82281667  0.65890000  1.0
  Li+  Li32  1  0.16623333  0.82281667  0.65890000  1.0
  Li+  Li33  1  0.66710000  0.26051667  0.15890000  1.0
  Li+  Li34  1  0.33376667  0.26051667  0.15890000  1.0
  Li+  Li35  1  0.00043333  0.26051667  0.15890000  1.0
  Li+  Li36  1  0.66710000  0.76051667  0.15890000  1.0
  Li+  Li37  1  0.33376667  0.76051667  0.15890000  1.0
  Li+  Li38  1  0.00043333  0.76051667  0.15890000  1.0
  Li+  Li39  1  0.99956667  0.51051667  0.34110000  1.0
  Li+  Li40  1  0.66623333  0.51051667  0.34110000  1.0
  Li+  Li41  1  0.33290000  0.51051667  0.34110000  1.0
  Zn2+  Zn42  1  0.99956667  0.01051667  0.34110000  1.0
  Zn2+  Zn43  1  0.66623333  0.01051667  0.34110000  1.0
  Zn2+  Zn44  1  0.33290000  0.01051667  0.34110000  1.0
  Zn2+  Zn45  1  0.83376667  0.57281667  0.84110000  1.0
  Zn2+  Zn46  1  0.50043333  0.57281667  0.84110000  1.0
  Zn2+  Zn47  1  0.16710000  0.57281667  0.84110000  1.0
  Ga3+  Ga48  1  0.83376667  0.51051667  0.34110000  1.0
  Ga3+  Ga49  1  0.50043333  0.51051667  0.34110000  1.0
  Ga3+  Ga50  1  0.16710000  0.51051667  0.34110000  1.0
  Ga3+  Ga51  1  0.83376667  0.07281667  0.84110000  1.0
  Ga3+  Ga52  1  0.50043333  0.07281667  0.84110000  1.0
  Ga3+  Ga53  1  0.16710000  0.07281667  0.84110000  1.0
  P5+  P54  1  0.91666667  0.51136667  0.09274000  1.0
  P5+  P55  1  0.58333333  0.51136667  0.09274000  1.0
  P5+  P56  1  0.25000000  0.51136667  0.09274000  1.0
  P5+  P57  1  0.91666667  0.01136667  0.09274000  1.0
  P5+  P58  1  0.58333333  0.01136667  0.09274000  1.0
  P5+  P59  1  0.25000000  0.01136667  0.09274000  1.0
  P5+  P60  1  0.91666667  0.57196667  0.59274000  1.0
  P5+  P61  1  0.58333333  0.57196667  0.59274000  1.0
  P5+  P62  1  0.25000000  0.57196667  0.59274000  1.0
  P5+  P63  1  0.91666667  0.07196667  0.59274000  1.0
  P5+  P64  1  0.58333333  0.07196667  0.59274000  1.0
  P5+  P65  1  0.25000000  0.07196667  0.59274000  1.0
  P5+  P66  1  0.75000000  0.32196667  0.90726000  1.0
  P5+  P67  1  0.41666667  0.32196667  0.90726000  1.0
  P5+  P68  1  0.08333333  0.32196667  0.90726000  1.0
  P5+  P69  1  0.75000000  0.82196667  0.90726000  1.0
  P5+  P70  1  0.41666667  0.82196667  0.90726000  1.0
  P5+  P71  1  0.08333333  0.82196667  0.90726000  1.0
  P5+  P72  1  0.75000000  0.26136667  0.40726000  1.0
  P5+  P73  1  0.41666667  0.26136667  0.40726000  1.0
  P5+  P74  1  0.08333333  0.26136667  0.40726000  1.0
  P5+  P75  1  0.75000000  0.76136667  0.40726000  1.0
  P5+  P76  1  0.41666667  0.76136667  0.40726000  1.0
  P5+  P77  1  0.08333333  0.76136667  0.40726000  1.0
  O2-  O78  1  0.85036667  0.56836667  0.16160000  1.0
  O2-  O79  1  0.51703333  0.56836667  0.16160000  1.0
  O2-  O80  1  0.18370000  0.56836667  0.16160000  1.0
  O2-  O81  1  0.85036667  0.06836667  0.16160000  1.0
  O2-  O82  1  0.51703333  0.06836667  0.16160000  1.0
  O2-  O83  1  0.18370000  0.06836667  0.16160000  1.0
  O2-  O84  1  0.98296667  0.51496667  0.66160000  1.0
  O2-  O85  1  0.64963333  0.51496667  0.66160000  1.0
  O2-  O86  1  0.31630000  0.51496667  0.66160000  1.0
  O2-  O87  1  0.98296667  0.01496667  0.66160000  1.0
  O2-  O88  1  0.64963333  0.01496667  0.66160000  1.0
  O2-  O89  1  0.31630000  0.01496667  0.66160000  1.0
  O2-  O90  1  0.68370000  0.26496667  0.83840000  1.0
  O2-  O91  1  0.35036667  0.26496667  0.83840000  1.0
  O2-  O92  1  0.01703333  0.26496667  0.83840000  1.0
  O2-  O93  1  0.68370000  0.76496667  0.83840000  1.0
  O2-  O94  1  0.35036667  0.76496667  0.83840000  1.0
  O2-  O95  1  0.01703333  0.76496667  0.83840000  1.0
  O2-  O96  1  0.81630000  0.31836667  0.33840000  1.0
  O2-  O97  1  0.48296667  0.31836667  0.33840000  1.0
  O2-  O98  1  0.14963333  0.31836667  0.33840000  1.0
  O2-  O99  1  0.81630000  0.81836667  0.33840000  1.0
  O2-  O100  1  0.48296667  0.81836667  0.33840000  1.0
  O2-  O101  1  0.14963333  0.81836667  0.33840000  1.0
  O2-  O102  1  0.81630000  0.26496667  0.83840000  1.0
  O2-  O103  1  0.48296667  0.26496667  0.83840000  1.0
  O2-  O104  1  0.14963333  0.26496667  0.83840000  1.0
  O2-  O105  1  0.81630000  0.76496667  0.83840000  1.0
  O2-  O106  1  0.48296667  0.76496667  0.83840000  1.0
  O2-  O107  1  0.14963333  0.76496667  0.83840000  1.0
  O2-  O108  1  0.68370000  0.31836667  0.33840000  1.0
  O2-  O109  1  0.35036667  0.31836667  0.33840000  1.0
  O2-  O110  1  0.01703333  0.31836667  0.33840000  1.0
  O2-  O111  1  0.68370000  0.81836667  0.33840000  1.0
  O2-  O112  1  0.35036667  0.81836667  0.33840000  1.0
  O2-  O113  1  0.01703333  0.81836667  0.33840000  1.0
  O2-  O114  1  0.98296667  0.56836667  0.16160000  1.0
  O2-  O115  1  0.64963333  0.56836667  0.16160000  1.0
  O2-  O116  1  0.31630000  0.56836667  0.16160000  1.0
  O2-  O117  1  0.98296667  0.06836667  0.16160000  1.0
  O2-  O118  1  0.64963333  0.06836667  0.16160000  1.0
  O2-  O119  1  0.31630000  0.06836667  0.16160000  1.0
  O2-  O120  1  0.85036667  0.51496667  0.66160000  1.0
  O2-  O121  1  0.51703333  0.51496667  0.66160000  1.0
  O2-  O122  1  0.18370000  0.51496667  0.66160000  1.0
  O2-  O123  1  0.85036667  0.01496667  0.66160000  1.0
  O2-  O124  1  0.51703333  0.01496667  0.66160000  1.0
  O2-  O125  1  0.18370000  0.01496667  0.66160000  1.0
  O2-  O126  1  0.91666667  0.55071667  0.94690000  1.0
  O2-  O127  1  0.58333333  0.55071667  0.94690000  1.0
  O2-  O128  1  0.25000000  0.55071667  0.94690000  1.0
  O2-  O129  1  0.91666667  0.05071667  0.94690000  1.0
  O2-  O130  1  0.58333333  0.05071667  0.94690000  1.0
  O2-  O131  1  0.25000000  0.05071667  0.94690000  1.0
  O2-  O132  1  0.91666667  0.53261667  0.44690000  1.0
  O2-  O133  1  0.58333333  0.53261667  0.44690000  1.0
  O2-  O134  1  0.25000000  0.53261667  0.44690000  1.0
  O2-  O135  1  0.91666667  0.03261667  0.44690000  1.0
  O2-  O136  1  0.58333333  0.03261667  0.44690000  1.0
  O2-  O137  1  0.25000000  0.03261667  0.44690000  1.0
  O2-  O138  1  0.75000000  0.28261667  0.05310000  1.0
  O2-  O139  1  0.41666667  0.28261667  0.05310000  1.0
  O2-  O140  1  0.08333333  0.28261667  0.05310000  1.0
  O2-  O141  1  0.75000000  0.78261667  0.05310000  1.0
  O2-  O142  1  0.41666667  0.78261667  0.05310000  1.0
  O2-  O143  1  0.08333333  0.78261667  0.05310000  1.0
  O2-  O144  1  0.75000000  0.30071667  0.55310000  1.0
  O2-  O145  1  0.41666667  0.30071667  0.55310000  1.0
  O2-  O146  1  0.08333333  0.30071667  0.55310000  1.0
  O2-  O147  1  0.75000000  0.80071667  0.55310000  1.0
  O2-  O148  1  0.41666667  0.80071667  0.55310000  1.0
  O2-  O149  1  0.08333333  0.80071667  0.55310000  1.0
  O2-  O150  1  0.75000000  0.47836667  0.89280000  1.0
  O2-  O151  1  0.41666667  0.47836667  0.89280000  1.0
  O2-  O152  1  0.08333333  0.47836667  0.89280000  1.0
  O2-  O153  1  0.75000000  0.97836667  0.89280000  1.0
  O2-  O154  1  0.41666667  0.97836667  0.89280000  1.0
  O2-  O155  1  0.08333333  0.97836667  0.89280000  1.0
  O2-  O156  1  0.75000000  0.60496667  0.39280000  1.0
  O2-  O157  1  0.41666667  0.60496667  0.39280000  1.0
  O2-  O158  1  0.08333333  0.60496667  0.39280000  1.0
  O2-  O159  1  0.75000000  0.10496667  0.39280000  1.0
  O2-  O160  1  0.41666667  0.10496667  0.39280000  1.0
  O2-  O161  1  0.08333333  0.10496667  0.39280000  1.0
  O2-  O162  1  0.91666667  0.35496667  0.10720000  1.0
  O2-  O163  1  0.58333333  0.35496667  0.10720000  1.0
  O2-  O164  1  0.25000000  0.35496667  0.10720000  1.0
  O2-  O165  1  0.91666667  0.85496667  0.10720000  1.0
  O2-  O166  1  0.58333333  0.85496667  0.10720000  1.0
  O2-  O167  1  0.25000000  0.85496667  0.10720000  1.0
  O2-  O168  1  0.91666667  0.22836667  0.60720000  1.0
  O2-  O169  1  0.58333333  0.22836667  0.60720000  1.0
  O2-  O170  1  0.25000000  0.22836667  0.60720000  1.0
  O2-  O171  1  0.91666667  0.72836667  0.60720000  1.0
  O2-  O172  1  0.58333333  0.72836667  0.60720000  1.0
  O2-  O173  1  0.25000000  0.72836667  0.60720000  1.0
