# generated using pymatgen
data_Li7ZnGa(PO4)4
_symmetry_space_group_name_H-M   'P 1'
_cell_length_a   9.87175600
_cell_length_b   19.53240000
_cell_length_c   10.08925000
_cell_angle_alpha   90.00000000
_cell_angle_beta   90.00000000
_cell_angle_gamma   90.00000000
_symmetry_Int_Tables_number   1
_chemical_formula_structural   Li7ZnGa(PO4)4
_chemical_formula_sum   'Li42 Zn6 Ga6 P24 O96'
_cell_volume   1945.39997245
_cell_formula_units_Z   6
loop_
 _symmetry_equiv_pos_site_id
 _symmetry_equiv_pos_as_xyz
  1  'x, y, z'
loop_
 _atom_type_symbol
 _atom_type_oxidation_number
  Li+  1.0
  Zn2+  2.0
  Ga3+  3.0
  P5+  5.0
  O2-  -2.0
loop_
 _atom_site_type_symbol
 _atom_site_label
 _atom_site_symmetry_multiplicity
 _atom_site_fract_x
 _atom_site_fract_y
 _atom_site_fract_z
 _atom_site_occupancy
  Li+  Li0  1  0.70000000  0.25000000  0.56000000  1.0
  Li+  Li0  1  0.70000000  0.58333333  0.56000000  1.0
  Li+  Li0  1  0.70000000  0.91666667  0.56000000  1.0
  Li+  Li1  1  0.95000000  0.08333333  0.94000000  1.0
  Li+  Li1  1  0.95000000  0.41666667  0.94000000  1.0
  Li+  Li1  1  0.95000000  0.75000000  0.94000000  1.0
  Li+  Li2  1  0.65615000  0.16623333  0.34110000  1.0
  Li+  Li2  1  0.65615000  0.49956667  0.34110000  1.0
  Li+  Li2  1  0.65615000  0.83290000  0.34110000  1.0
  Li+  Li3  1  0.09385000  0.00043333  0.84110000  1.0
  Li+  Li3  1  0.09385000  0.33376667  0.84110000  1.0
  Li+  Li3  1  0.09385000  0.66710000  0.84110000  1.0
  Li+  Li4  1  0.59385000  0.00043333  0.84110000  1.0
  Li+  Li4  1  0.59385000  0.33376667  0.84110000  1.0
  Li+  Li4  1  0.59385000  0.66710000  0.84110000  1.0
  Li+  Li5  1  0.34385000  0.33290000  0.65890000  1.0
  Li+  Li5  1  0.34385000  0.66623333  0.65890000  1.0
  Li+  Li5  1  0.34385000  0.99956667  0.65890000  1.0
  Li+  Li6  1  0.84385000  0.33290000  0.65890000  1.0
  Li+  Li6  1  0.84385000  0.66623333  0.65890000  1.0
  Li+  Li6  1  0.84385000  0.99956667  0.65890000  1.0
  Li+  Li7  1  0.40615000  0.16710000  0.15890000  1.0
  Li+  Li7  1  0.40615000  0.50043333  0.15890000  1.0
  Li+  Li7  1  0.40615000  0.83376667  0.15890000  1.0
  Li+  Li8  1  0.90615000  0.16710000  0.15890000  1.0
  Li+  Li8  1  0.90615000  0.50043333  0.15890000  1.0
  Li+  Li8  1  0.90615000  0.83376667  0.15890000  1.0
  Li+  Li9  1  0.34385000  0.16710000  0.65890000  1.0
  Li+  Li9  1  0.34385000  0.50043333  0.65890000  1.0
  Li+  Li9  1  0.34385000  0.83376667  0.65890000  1.0
  Li+  Li10  1  0.84385000  0.16710000  0.65890000  1.0
  Li+  Li10  1  0.84385000  0.50043333  0.65890000  1.0
  Li+  Li10  1  0.84385000  0.83376667  0.65890000  1.0
  Li+  Li11  1  0.40615000  0.33290000  0.15890000  1.0
  Li+  Li11  1  0.40615000  0.66623333  0.15890000  1.0
  Li+  Li11  1  0.40615000  0.99956667  0.15890000  1.0
  Li+  Li12  1  0.90615000  0.33290000  0.15890000  1.0
  Li+  Li12  1  0.90615000  0.66623333  0.15890000  1.0
  Li+  Li12  1  0.90615000  0.99956667  0.15890000  1.0
  Li+  Li13  1  0.15615000  0.00043333  0.34110000  1.0
  Li+  Li13  1  0.15615000  0.33376667  0.34110000  1.0
  Li+  Li13  1  0.15615000  0.66710000  0.34110000  1.0
  Zn2+  Zn14  1  0.65615000  0.00043333  0.34110000  1.0
  Zn2+  Zn14  1  0.65615000  0.33376667  0.34110000  1.0
  Zn2+  Zn14  1  0.65615000  0.66710000  0.34110000  1.0
  Zn2+  Zn15  1  0.09385000  0.16623333  0.84110000  1.0
  Zn2+  Zn15  1  0.09385000  0.49956667  0.84110000  1.0
  Zn2+  Zn15  1  0.09385000  0.83290000  0.84110000  1.0
  Ga3+  Ga16  1  0.15615000  0.16623333  0.34110000  1.0
  Ga3+  Ga16  1  0.15615000  0.49956667  0.34110000  1.0
  Ga3+  Ga16  1  0.15615000  0.83290000  0.34110000  1.0
  Ga3+  Ga17  1  0.59385000  0.16623333  0.84110000  1.0
  Ga3+  Ga17  1  0.59385000  0.49956667  0.84110000  1.0
  Ga3+  Ga17  1  0.59385000  0.83290000  0.84110000  1.0
  P5+  P1  1  0.15530000  0.08333333  0.09274000  1.0
  P5+  P1  1  0.15530000  0.41666667  0.09274000  1.0
  P5+  P1  1  0.15530000  0.75000000  0.09274000  1.0
  P5+  P1  1  0.65530000  0.08333333  0.09274000  1.0
  P5+  P1  1  0.65530000  0.41666667  0.09274000  1.0
  P5+  P1  1  0.65530000  0.75000000  0.09274000  1.0
  P5+  P1  1  0.09470000  0.08333333  0.59274000  1.0
  P5+  P1  1  0.09470000  0.41666667  0.59274000  1.0
  P5+  P1  1  0.09470000  0.75000000  0.59274000  1.0
  P5+  P1  1  0.59470000  0.08333333  0.59274000  1.0
  P5+  P1  1  0.59470000  0.41666667  0.59274000  1.0
  P5+  P1  1  0.59470000  0.75000000  0.59274000  1.0
  P5+  P1  1  0.34470000  0.25000000  0.90726000  1.0
  P5+  P1  1  0.34470000  0.58333333  0.90726000  1.0
  P5+  P1  1  0.34470000  0.91666667  0.90726000  1.0
  P5+  P1  1  0.84470000  0.25000000  0.90726000  1.0
  P5+  P1  1  0.84470000  0.58333333  0.90726000  1.0
  P5+  P1  1  0.84470000  0.91666667  0.90726000  1.0
  P5+  P1  1  0.40530000  0.25000000  0.40726000  1.0
  P5+  P1  1  0.40530000  0.58333333  0.40726000  1.0
  P5+  P1  1  0.40530000  0.91666667  0.40726000  1.0
  P5+  P1  1  0.90530000  0.25000000  0.40726000  1.0
  P5+  P1  1  0.90530000  0.58333333  0.40726000  1.0
  P5+  P1  1  0.90530000  0.91666667  0.40726000  1.0
  O2-  O1  1  0.09830000  0.14963333  0.16160000  1.0
  O2-  O1  1  0.09830000  0.48296667  0.16160000  1.0
  O2-  O1  1  0.09830000  0.81630000  0.16160000  1.0
  O2-  O1  1  0.59830000  0.14963333  0.16160000  1.0
  O2-  O1  1  0.59830000  0.48296667  0.16160000  1.0
  O2-  O1  1  0.59830000  0.81630000  0.16160000  1.0
  O2-  O1  1  0.15170000  0.01703333  0.66160000  1.0
  O2-  O1  1  0.15170000  0.35036667  0.66160000  1.0
  O2-  O1  1  0.15170000  0.68370000  0.66160000  1.0
  O2-  O1  1  0.65170000  0.01703333  0.66160000  1.0
  O2-  O1  1  0.65170000  0.35036667  0.66160000  1.0
  O2-  O1  1  0.65170000  0.68370000  0.66160000  1.0
  O2-  O1  1  0.40170000  0.31630000  0.83840000  1.0
  O2-  O1  1  0.40170000  0.64963333  0.83840000  1.0
  O2-  O1  1  0.40170000  0.98296667  0.83840000  1.0
  O2-  O1  1  0.90170000  0.31630000  0.83840000  1.0
  O2-  O1  1  0.90170000  0.64963333  0.83840000  1.0
  O2-  O1  1  0.90170000  0.98296667  0.83840000  1.0
  O2-  O1  1  0.34830000  0.18370000  0.33840000  1.0
  O2-  O1  1  0.34830000  0.51703333  0.33840000  1.0
  O2-  O1  1  0.34830000  0.85036667  0.33840000  1.0
  O2-  O1  1  0.84830000  0.18370000  0.33840000  1.0
  O2-  O1  1  0.84830000  0.51703333  0.33840000  1.0
  O2-  O1  1  0.84830000  0.85036667  0.33840000  1.0
  O2-  O1  1  0.40170000  0.18370000  0.83840000  1.0
  O2-  O1  1  0.40170000  0.51703333  0.83840000  1.0
  O2-  O1  1  0.40170000  0.85036667  0.83840000  1.0
  O2-  O1  1  0.90170000  0.18370000  0.83840000  1.0
  O2-  O1  1  0.90170000  0.51703333  0.83840000  1.0
  O2-  O1  1  0.90170000  0.85036667  0.83840000  1.0
  O2-  O1  1  0.34830000  0.31630000  0.33840000  1.0
  O2-  O1  1  0.34830000  0.64963333  0.33840000  1.0
  O2-  O1  1  0.34830000  0.98296667  0.33840000  1.0
  O2-  O1  1  0.84830000  0.31630000  0.33840000  1.0
  O2-  O1  1  0.84830000  0.64963333  0.33840000  1.0
  O2-  O1  1  0.84830000  0.98296667  0.33840000  1.0
  O2-  O1  1  0.09830000  0.01703333  0.16160000  1.0
  O2-  O1  1  0.09830000  0.35036667  0.16160000  1.0
  O2-  O1  1  0.09830000  0.68370000  0.16160000  1.0
  O2-  O1  1  0.59830000  0.01703333  0.16160000  1.0
  O2-  O1  1  0.59830000  0.35036667  0.16160000  1.0
  O2-  O1  1  0.59830000  0.68370000  0.16160000  1.0
  O2-  O1  1  0.15170000  0.14963333  0.66160000  1.0
  O2-  O1  1  0.15170000  0.48296667  0.66160000  1.0
  O2-  O1  1  0.15170000  0.81630000  0.66160000  1.0
  O2-  O1  1  0.65170000  0.14963333  0.66160000  1.0
  O2-  O1  1  0.65170000  0.48296667  0.66160000  1.0
  O2-  O1  1  0.65170000  0.81630000  0.66160000  1.0
  O2-  O2  1  0.11595000  0.08333333  0.94690000  1.0
  O2-  O2  1  0.11595000  0.41666667  0.94690000  1.0
  O2-  O2  1  0.11595000  0.75000000  0.94690000  1.0
  O2-  O2  1  0.61595000  0.08333333  0.94690000  1.0
  O2-  O2  1  0.61595000  0.41666667  0.94690000  1.0
  O2-  O2  1  0.61595000  0.75000000  0.94690000  1.0
  O2-  O2  1  0.13405000  0.08333333  0.44690000  1.0
  O2-  O2  1  0.13405000  0.41666667  0.44690000  1.0
  O2-  O2  1  0.13405000  0.75000000  0.44690000  1.0
  O2-  O2  1  0.63405000  0.08333333  0.44690000  1.0
  O2-  O2  1  0.63405000  0.41666667  0.44690000  1.0
  O2-  O2  1  0.63405000  0.75000000  0.44690000  1.0
  O2-  O2  1  0.38405000  0.25000000  0.05310000  1.0
  O2-  O2  1  0.38405000  0.58333333  0.05310000  1.0
  O2-  O2  1  0.38405000  0.91666667  0.05310000  1.0
  O2-  O2  1  0.88405000  0.25000000  0.05310000  1.0
  O2-  O2  1  0.88405000  0.58333333  0.05310000  1.0
  O2-  O2  1  0.88405000  0.91666667  0.05310000  1.0
  O2-  O2  1  0.36595000  0.25000000  0.55310000  1.0
  O2-  O2  1  0.36595000  0.58333333  0.55310000  1.0
  O2-  O2  1  0.36595000  0.91666667  0.55310000  1.0
  O2-  O2  1  0.86595000  0.25000000  0.55310000  1.0
  O2-  O2  1  0.86595000  0.58333333  0.55310000  1.0
  O2-  O2  1  0.86595000  0.91666667  0.55310000  1.0
  O2-  O3  1  0.18830000  0.25000000  0.89280000  1.0
  O2-  O3  1  0.18830000  0.58333333  0.89280000  1.0
  O2-  O3  1  0.18830000  0.91666667  0.89280000  1.0
  O2-  O3  1  0.68830000  0.25000000  0.89280000  1.0
  O2-  O3  1  0.68830000  0.58333333  0.89280000  1.0
  O2-  O3  1  0.68830000  0.91666667  0.89280000  1.0
  O2-  O3  1  0.06170000  0.25000000  0.39280000  1.0
  O2-  O3  1  0.06170000  0.58333333  0.39280000  1.0
  O2-  O3  1  0.06170000  0.91666667  0.39280000  1.0
  O2-  O3  1  0.56170000  0.25000000  0.39280000  1.0
  O2-  O3  1  0.56170000  0.58333333  0.39280000  1.0
  O2-  O3  1  0.56170000  0.91666667  0.39280000  1.0
  O2-  O3  1  0.31170000  0.08333333  0.10720000  1.0
  O2-  O3  1  0.31170000  0.41666667  0.10720000  1.0
  O2-  O3  1  0.31170000  0.75000000  0.10720000  1.0
  O2-  O3  1  0.81170000  0.08333333  0.10720000  1.0
  O2-  O3  1  0.81170000  0.41666667  0.10720000  1.0
  O2-  O3  1  0.81170000  0.75000000  0.10720000  1.0
  O2-  O3  1  0.43830000  0.08333333  0.60720000  1.0
  O2-  O3  1  0.43830000  0.41666667  0.60720000  1.0
  O2-  O3  1  0.43830000  0.75000000  0.60720000  1.0
  O2-  O3  1  0.93830000  0.08333333  0.60720000  1.0
  O2-  O3  1  0.93830000  0.41666667  0.60720000  1.0
  O2-  O3  1  0.93830000  0.75000000  0.60720000  1.0
