# generated using pymatgen
data_Li2ZnI4
_symmetry_space_group_name_H-M   'P 1'
_cell_length_a   14.02460000
_cell_length_b   17.12000000
_cell_length_c   14.82800000
_cell_angle_alpha   90.00000000
_cell_angle_beta   90.00000000
_cell_angle_gamma   90.00000000
_symmetry_Int_Tables_number   1
_chemical_formula_structural   Li2ZnI4
_chemical_formula_sum   'Li32 Zn16 I64'
_cell_volume   3560.21988186
_cell_formula_units_Z   16
loop_
 _symmetry_equiv_pos_site_id
 _symmetry_equiv_pos_as_xyz
  1  'x, y, z'
loop_
 _atom_type_symbol
 _atom_type_oxidation_number
  Li+  1.0
  Zn2+  2.0
  I-  -1.0
loop_
 _atom_site_type_symbol
 _atom_site_label
 _atom_site_symmetry_multiplicity
 _atom_site_fract_x
 _atom_site_fract_y
 _atom_site_fract_z
 _atom_site_occupancy
  Li+  Li1  1  0.25000000  0.00000000  0.50000000  1.0
  Li+  Li1  1  0.25000000  0.50000000  0.50000000  1.0
  Li+  Li1  1  0.75000000  0.00000000  0.50000000  1.0
  Li+  Li1  1  0.75000000  0.50000000  0.50000000  1.0
  Li+  Li1  1  0.00000000  0.25000000  0.00000000  1.0
  Li+  Li1  1  0.00000000  0.75000000  0.00000000  1.0
  Li+  Li1  1  0.50000000  0.25000000  0.00000000  1.0
  Li+  Li1  1  0.50000000  0.75000000  0.00000000  1.0
  Li+  Li1  1  0.25000000  0.25000000  0.50000000  1.0
  Li+  Li1  1  0.25000000  0.75000000  0.50000000  1.0
  Li+  Li1  1  0.75000000  0.25000000  0.50000000  1.0
  Li+  Li1  1  0.75000000  0.75000000  0.50000000  1.0
  Li+  Li1  1  0.00000000  0.00000000  0.00000000  1.0
  Li+  Li1  1  0.00000000  0.50000000  0.00000000  1.0
  Li+  Li1  1  0.50000000  0.00000000  0.00000000  1.0
  Li+  Li1  1  0.50000000  0.50000000  0.00000000  1.0
  Li+  Li2  1  0.25100000  0.37500000  0.23500000  1.0
  Li+  Li2  1  0.25100000  0.87500000  0.23500000  1.0
  Li+  Li2  1  0.75100000  0.37500000  0.23500000  1.0
  Li+  Li2  1  0.75100000  0.87500000  0.23500000  1.0
  Li+  Li2  1  0.49900000  0.37500000  0.73500000  1.0
  Li+  Li2  1  0.49900000  0.87500000  0.73500000  1.0
  Li+  Li2  1  0.99900000  0.37500000  0.73500000  1.0
  Li+  Li2  1  0.99900000  0.87500000  0.73500000  1.0
  Li+  Li2  1  0.24900000  0.12500000  0.76500000  1.0
  Li+  Li2  1  0.24900000  0.62500000  0.76500000  1.0
  Li+  Li2  1  0.74900000  0.12500000  0.76500000  1.0
  Li+  Li2  1  0.74900000  0.62500000  0.76500000  1.0
  Li+  Li2  1  0.00100000  0.12500000  0.26500000  1.0
  Li+  Li2  1  0.00100000  0.62500000  0.26500000  1.0
  Li+  Li2  1  0.50100000  0.12500000  0.26500000  1.0
  Li+  Li2  1  0.50100000  0.62500000  0.26500000  1.0
  Zn2+  Zn1  1  0.45095000  0.37500000  0.41382000  1.0
  Zn2+  Zn1  1  0.45095000  0.87500000  0.41382000  1.0
  Zn2+  Zn1  1  0.95095000  0.37500000  0.41382000  1.0
  Zn2+  Zn1  1  0.95095000  0.87500000  0.41382000  1.0
  Zn2+  Zn1  1  0.29905000  0.37500000  0.91382000  1.0
  Zn2+  Zn1  1  0.29905000  0.87500000  0.91382000  1.0
  Zn2+  Zn1  1  0.79905000  0.37500000  0.91382000  1.0
  Zn2+  Zn1  1  0.79905000  0.87500000  0.91382000  1.0
  Zn2+  Zn1  1  0.04905000  0.12500000  0.58618000  1.0
  Zn2+  Zn1  1  0.04905000  0.62500000  0.58618000  1.0
  Zn2+  Zn1  1  0.54905000  0.12500000  0.58618000  1.0
  Zn2+  Zn1  1  0.54905000  0.62500000  0.58618000  1.0
  Zn2+  Zn1  1  0.20095000  0.12500000  0.08618000  1.0
  Zn2+  Zn1  1  0.20095000  0.62500000  0.08618000  1.0
  Zn2+  Zn1  1  0.70095000  0.12500000  0.08618000  1.0
  Zn2+  Zn1  1  0.70095000  0.62500000  0.08618000  1.0
  I-  I1  1  0.13489000  0.37500000  0.41139000  1.0
  I-  I1  1  0.13489000  0.87500000  0.41139000  1.0
  I-  I1  1  0.63489000  0.37500000  0.41139000  1.0
  I-  I1  1  0.63489000  0.87500000  0.41139000  1.0
  I-  I1  1  0.11511000  0.37500000  0.91139000  1.0
  I-  I1  1  0.11511000  0.87500000  0.91139000  1.0
  I-  I1  1  0.61511000  0.37500000  0.91139000  1.0
  I-  I1  1  0.61511000  0.87500000  0.91139000  1.0
  I-  I1  1  0.36511000  0.12500000  0.58861000  1.0
  I-  I1  1  0.36511000  0.62500000  0.58861000  1.0
  I-  I1  1  0.86511000  0.12500000  0.58861000  1.0
  I-  I1  1  0.86511000  0.62500000  0.58861000  1.0
  I-  I1  1  0.38489000  0.12500000  0.08861000  1.0
  I-  I1  1  0.38489000  0.62500000  0.08861000  1.0
  I-  I1  1  0.88489000  0.12500000  0.08861000  1.0
  I-  I1  1  0.88489000  0.62500000  0.08861000  1.0
  I-  I2  1  0.37564000  0.37500000  0.07570000  1.0
  I-  I2  1  0.37564000  0.87500000  0.07570000  1.0
  I-  I2  1  0.87564000  0.37500000  0.07570000  1.0
  I-  I2  1  0.87564000  0.87500000  0.07570000  1.0
  I-  I2  1  0.37436000  0.37500000  0.57570000  1.0
  I-  I2  1  0.37436000  0.87500000  0.57570000  1.0
  I-  I2  1  0.87436000  0.37500000  0.57570000  1.0
  I-  I2  1  0.87436000  0.87500000  0.57570000  1.0
  I-  I2  1  0.12436000  0.12500000  0.92430000  1.0
  I-  I2  1  0.12436000  0.62500000  0.92430000  1.0
  I-  I2  1  0.62436000  0.12500000  0.92430000  1.0
  I-  I2  1  0.62436000  0.62500000  0.92430000  1.0
  I-  I2  1  0.12564000  0.12500000  0.42430000  1.0
  I-  I2  1  0.12564000  0.62500000  0.42430000  1.0
  I-  I2  1  0.62564000  0.12500000  0.42430000  1.0
  I-  I2  1  0.62564000  0.62500000  0.42430000  1.0
  I-  I3  1  0.37404000  0.49624000  0.33361000  1.0
  I-  I3  1  0.37404000  0.99624000  0.33361000  1.0
  I-  I3  1  0.87404000  0.49624000  0.33361000  1.0
  I-  I3  1  0.87404000  0.99624000  0.33361000  1.0
  I-  I3  1  0.37596000  0.25376000  0.83361000  1.0
  I-  I3  1  0.37596000  0.75376000  0.83361000  1.0
  I-  I3  1  0.87596000  0.25376000  0.83361000  1.0
  I-  I3  1  0.87596000  0.75376000  0.83361000  1.0
  I-  I3  1  0.12596000  0.24624000  0.66639000  1.0
  I-  I3  1  0.12596000  0.74624000  0.66639000  1.0
  I-  I3  1  0.62596000  0.24624000  0.66639000  1.0
  I-  I3  1  0.62596000  0.74624000  0.66639000  1.0
  I-  I3  1  0.12404000  0.00376000  0.16639000  1.0
  I-  I3  1  0.12404000  0.50376000  0.16639000  1.0
  I-  I3  1  0.62404000  0.00376000  0.16639000  1.0
  I-  I3  1  0.62404000  0.50376000  0.16639000  1.0
  I-  I3  1  0.12596000  0.00376000  0.66639000  1.0
  I-  I3  1  0.12596000  0.50376000  0.66639000  1.0
  I-  I3  1  0.62596000  0.00376000  0.66639000  1.0
  I-  I3  1  0.62596000  0.50376000  0.66639000  1.0
  I-  I3  1  0.12404000  0.24624000  0.16639000  1.0
  I-  I3  1  0.12404000  0.74624000  0.16639000  1.0
  I-  I3  1  0.62404000  0.24624000  0.16639000  1.0
  I-  I3  1  0.62404000  0.74624000  0.16639000  1.0
  I-  I3  1  0.37404000  0.25376000  0.33361000  1.0
  I-  I3  1  0.37404000  0.75376000  0.33361000  1.0
  I-  I3  1  0.87404000  0.25376000  0.33361000  1.0
  I-  I3  1  0.87404000  0.75376000  0.33361000  1.0
  I-  I3  1  0.37596000  0.49624000  0.83361000  1.0
  I-  I3  1  0.37596000  0.99624000  0.83361000  1.0
  I-  I3  1  0.87596000  0.49624000  0.83361000  1.0
  I-  I3  1  0.87596000  0.99624000  0.83361000  1.0
