# generated using pymatgen
data_Li8GeP4
_symmetry_space_group_name_H-M   'P 1'
_cell_length_a   11.77294000
_cell_length_b   11.77294000
_cell_length_c   11.77294000
_cell_angle_alpha   90.00000000
_cell_angle_beta   90.00000000
_cell_angle_gamma   90.00000000
_symmetry_Int_Tables_number   1
_chemical_formula_structural   Li8GeP4
_chemical_formula_sum   'Li64 Ge8 P32'
_cell_volume   1631.75439841
_cell_formula_units_Z   8
loop_
 _symmetry_equiv_pos_site_id
 _symmetry_equiv_pos_as_xyz
  1  'x, y, z'
loop_
 _atom_type_symbol
 _atom_type_oxidation_number
  Li+  1.0
  Ge4+  4.0
  P5+  5.0
loop_
 _atom_site_type_symbol
 _atom_site_label
 _atom_site_symmetry_multiplicity
 _atom_site_fract_x
 _atom_site_fract_y
 _atom_site_fract_z
 _atom_site_occupancy
  Li+  Li0  1  0.25000000  0.50000000  0.75000000  1.0
  Li+  Li1  1  0.00000000  0.75000000  0.25000000  1.0
  Li+  Li2  1  0.50000000  0.00000000  0.00000000  1.0
  Li+  Li3  1  0.75000000  0.50000000  0.75000000  1.0
  Li+  Li4  1  0.49835990  0.00458577  0.50483061  1.0
  Li+  Li5  1  0.00000000  0.25000000  0.25000000  1.0
  Li+  Li6  1  0.24500000  0.75500000  0.99500000  1.0
  Li+  Li7  1  0.75500000  0.75500000  0.50500000  1.0
  Li+  Li8  1  0.24500000  0.24500000  0.50500000  1.0
  Li+  Li9  1  0.75500000  0.24500000  0.99500000  1.0
  Li+  Li10  1  0.74369994  0.74576761  0.00564688  1.0
  Li+  Li11  1  0.25500000  0.25500000  0.00500000  1.0
  Li+  Li12  1  0.74848416  0.25757598  0.49127750  1.0
  Li+  Li13  1  0.25516208  0.74429991  0.49506318  1.0
  Li+  Li14  1  0.50000000  0.50000000  0.99000000  1.0
  Li+  Li15  1  0.23706712  0.49900919  0.24776989  1.0
  Li+  Li16  1  0.50000000  0.76000000  0.25000000  1.0
  Li+  Li17  1  0.49837827  0.50111391  0.50866690  1.0
  Li+  Li18  1  0.76000000  0.50000000  0.25000000  1.0
  Li+  Li19  1  0.50000000  0.24000000  0.25000000  1.0
  Li+  Li20  1  0.00000000  0.74000000  0.75000000  1.0
  Li+  Li21  1  0.74503201  0.00110468  0.75166032  1.0
  Li+  Li22  1  0.00000000  0.00000000  0.01000000  1.0
  Li+  Li23  1  0.99997876  0.26060518  0.74994994  1.0
  Li+  Li24  1  0.26000000  0.00000000  0.75000000  1.0
  Li+  Li25  1  0.00000000  0.00000000  0.49000000  1.0
  Li+  Li26  1  0.87814417  0.67160889  0.60838230  1.0
  Li+  Li27  1  0.86068094  0.88012329  0.41755575  1.0
  Li+  Li28  1  0.32454418  0.14617783  0.62643240  1.0
  Li+  Li29  1  0.11900000  0.32800000  0.60350000  1.0
  Li+  Li30  1  0.85350000  0.11900000  0.07800000  1.0
  Li+  Li31  1  0.82790857  0.61562739  0.10492963  1.0
  Li+  Li32  1  0.64537777  0.82955800  0.13345523  1.0
  Li+  Li33  1  0.38100000  0.35350000  0.92200000  1.0
  Li+  Li34  1  0.82800000  0.38100000  0.39650000  1.0
  Li+  Li35  1  0.17311491  0.62063963  0.39856075  1.0
  Li+  Li36  1  0.38100000  0.64650000  0.57800000  1.0
  Li+  Li37  1  0.35350000  0.82800000  0.36900000  1.0
  Li+  Li38  1  0.49300000  0.74390000  0.01470000  1.0
  Li+  Li39  1  0.26470000  0.50700000  0.00610000  1.0
  Li+  Li40  1  0.25610000  0.73530000  0.24300000  1.0
  Li+  Li41  1  0.73530000  0.50700000  0.49390000  1.0
  Li+  Li42  1  0.49386513  0.25449730  0.48470601  1.0
  Li+  Li43  1  0.26470000  0.49300000  0.49390000  1.0
  Li+  Li44  1  0.25610000  0.26470000  0.25700000  1.0
  Li+  Li45  1  0.50700000  0.25610000  0.01470000  1.0
  Li+  Li46  1  0.73530000  0.49300000  0.00610000  1.0
  Li+  Li47  1  0.74390000  0.26470000  0.24300000  1.0
  Li+  Li48  1  0.98990469  0.76351030  0.99624721  1.0
  Li+  Li49  1  0.76315456  0.75815443  0.75756710  1.0
  Li+  Li50  1  0.75610000  0.99300000  0.98530000  1.0
  Li+  Li51  1  0.00700000  0.23530000  0.99390000  1.0
  Li+  Li52  1  0.23550834  0.24287711  0.75562028  1.0
  Li+  Li53  1  0.24390000  0.00700000  0.98530000  1.0
  Li+  Li54  1  0.99300000  0.23530000  0.50610000  1.0
  Li+  Li55  1  0.76845871  0.24797570  0.74118187  1.0
  Li+  Li56  1  0.75945037  0.00666991  0.51423672  1.0
  Li+  Li57  1  0.23530000  0.75610000  0.74300000  1.0
  Li+  Li58  1  0.24390000  0.99300000  0.51470000  1.0
  Li+  Li59  1  0.50000000  0.50000000  0.75000000  1.0
  Li+  Li60  1  0.00000000  0.50000000  0.25000000  1.0
  Li+  Li61  1  0.49718440  0.99954714  0.25566483  1.0
  Li+  Li62  1  0.00000000  0.50000000  0.75000000  1.0
  Li+  Li63  1  0.50000000  0.00000000  0.75000000  1.0
  Ge4+  Ge64  1  0.00000000  0.00000000  0.75000000  1.0
  Ge4+  Ge65  1  0.50192753  0.50075173  0.25065990  1.0
  Ge4+  Ge66  1  0.50390098  0.74873536  0.74913654  1.0
  Ge4+  Ge67  1  0.00000000  0.50000000  0.00000000  1.0
  Ge4+  Ge68  1  0.25000000  0.00000000  0.25000000  1.0
  Ge4+  Ge69  1  0.00000000  0.50000000  0.50000000  1.0
  Ge4+  Ge70  1  0.75000000  0.00000000  0.25000000  1.0
  Ge4+  Ge71  1  0.50000000  0.25000000  0.75000000  1.0
  P5+  P72  1  0.11670000  0.88330000  0.86670000  1.0
  P5+  P73  1  0.88330000  0.88330000  0.63330000  1.0
  P5+  P74  1  0.11670000  0.11670000  0.63330000  1.0
  P5+  P75  1  0.88330000  0.11670000  0.86670000  1.0
  P5+  P76  1  0.61670000  0.61670000  0.13330000  1.0
  P5+  P77  1  0.38330000  0.38330000  0.13330000  1.0
  P5+  P78  1  0.61670000  0.38330000  0.36670000  1.0
  P5+  P79  1  0.38330000  0.61670000  0.36670000  1.0
  P5+  P80  1  0.37447000  0.63442000  0.86235000  1.0
  P5+  P81  1  0.11235000  0.62553000  0.11558000  1.0
  P5+  P82  1  0.36399898  0.88679889  0.11914551  1.0
  P5+  P83  1  0.62553000  0.63442000  0.63765000  1.0
  P5+  P84  1  0.88765000  0.62553000  0.38442000  1.0
  P5+  P85  1  0.63442000  0.88765000  0.37553000  1.0
  P5+  P86  1  0.37546517  0.36295549  0.64028231  1.0
  P5+  P87  1  0.11235000  0.37447000  0.38442000  1.0
  P5+  P88  1  0.36558000  0.11235000  0.37553000  1.0
  P5+  P89  1  0.62553000  0.36558000  0.86235000  1.0
  P5+  P90  1  0.88765000  0.37447000  0.11558000  1.0
  P5+  P91  1  0.63442000  0.11235000  0.12447000  1.0
  P5+  P92  1  0.87447000  0.61235000  0.88442000  1.0
  P5+  P93  1  0.61235000  0.86558000  0.87553000  1.0
  P5+  P94  1  0.86382825  0.87184014  0.13244408  1.0
  P5+  P95  1  0.12553000  0.38765000  0.88442000  1.0
  P5+  P96  1  0.38765000  0.13442000  0.87553000  1.0
  P5+  P97  1  0.13442000  0.12553000  0.13765000  1.0
  P5+  P98  1  0.87447000  0.38765000  0.61558000  1.0
  P5+  P99  1  0.61235000  0.13442000  0.62447000  1.0
  P5+  P100  1  0.86558000  0.12553000  0.36235000  1.0
  P5+  P101  1  0.12553000  0.61235000  0.61558000  1.0
  P5+  P102  1  0.38765000  0.86558000  0.62447000  1.0
  P5+  P103  1  0.13442000  0.87447000  0.36235000  1.0
