# generated using pymatgen
data_Li8GeP4
_symmetry_space_group_name_H-M   'P 1'
_cell_length_a   11.88852575
_cell_length_b   11.88852575
_cell_length_c   11.88852575
_cell_angle_alpha   90.00000000
_cell_angle_beta   90.00000000
_cell_angle_gamma   90.00000000
_symmetry_Int_Tables_number   1
_chemical_formula_structural   Li8GeP4
_chemical_formula_sum   'Li64 Ge8 P32'
_cell_volume   1680.28909307
_cell_formula_units_Z   8
loop_
 _symmetry_equiv_pos_site_id
 _symmetry_equiv_pos_as_xyz
  1  'x, y, z'
loop_
 _atom_type_symbol
 _atom_type_oxidation_number
  Li+  1.0
  Ge4+  4.0
  P5+  5.0
loop_
 _atom_site_type_symbol
 _atom_site_label
 _atom_site_symmetry_multiplicity
 _atom_site_fract_x
 _atom_site_fract_y
 _atom_site_fract_z
 _atom_site_occupancy
  Li+  Li0  1  0.00000000  0.41666667  0.50000000  1.0
  Li+  Li1  1  0.50000000  0.66666667  0.25000000  1.0
  Li+  Li2  1  0.25000000  0.16666667  0.00000000  1.0
  Li+  Li3  1  0.00000000  0.91666667  0.50000000  1.0
  Li+  Li4  1  0.75000000  0.16666667  0.00000000  1.0
  Li+  Li5  1  0.50000000  0.66666667  0.75000000  1.0
  Li+  Li6  1  0.24500000  0.42166667  0.24500000  1.0
  Li+  Li7  1  0.75500000  0.91166667  0.24500000  1.0
  Li+  Li8  1  0.75500000  0.42166667  0.75500000  1.0
  Li+  Li9  1  0.24500000  0.91166667  0.75500000  1.0
  Li+  Li10  1  0.25500000  0.92166667  0.25500000  1.0
  Li+  Li11  1  0.25500000  0.41166667  0.74500000  1.0
  Li+  Li12  1  0.74500000  0.92166667  0.74500000  1.0
  Li+  Li13  1  0.74500000  0.41166667  0.25500000  1.0
  Li+  Li14  1  0.24000000  0.16666667  0.50000000  1.0
  Li+  Li15  1  0.50000000  0.42666667  0.50000000  1.0
  Li+  Li16  1  0.50000000  0.16666667  0.24000000  1.0
  Li+  Li17  1  0.76000000  0.16666667  0.50000000  1.0
  Li+  Li18  1  0.50000000  0.90666667  0.50000000  1.0
  Li+  Li19  1  0.50000000  0.16666667  0.76000000  1.0
  Li+  Li20  1  0.00000000  0.66666667  0.26000000  1.0
  Li+  Li21  1  0.00000000  0.92666667  0.00000000  1.0
  Li+  Li22  1  0.26000000  0.66666667  0.00000000  1.0
  Li+  Li23  1  0.00000000  0.66666667  0.74000000  1.0
  Li+  Li24  1  0.00000000  0.40666667  0.00000000  1.0
  Li+  Li25  1  0.74000000  0.66666667  0.00000000  1.0
  Li+  Li26  1  0.85350000  0.78566667  0.32800000  1.0
  Li+  Li27  1  0.67200000  0.81316667  0.11900000  1.0
  Li+  Li28  1  0.88100000  0.33866667  0.85350000  1.0
  Li+  Li29  1  0.85350000  0.54766667  0.67200000  1.0
  Li+  Li30  1  0.32800000  0.81316667  0.88100000  1.0
  Li+  Li31  1  0.35350000  0.83866667  0.38100000  1.0
  Li+  Li32  1  0.38100000  0.02016667  0.17200000  1.0
  Li+  Li33  1  0.17200000  0.28566667  0.64650000  1.0
  Li+  Li34  1  0.64650000  0.83866667  0.61900000  1.0
  Li+  Li35  1  0.64650000  0.49466667  0.38100000  1.0
  Li+  Li36  1  0.82800000  0.28566667  0.35350000  1.0
  Li+  Li37  1  0.61900000  0.31316667  0.17200000  1.0
  Li+  Li38  1  0.26470000  0.17366667  0.25610000  1.0
  Li+  Li39  1  0.25610000  0.40196667  0.49300000  1.0
  Li+  Li40  1  0.49300000  0.41056667  0.26470000  1.0
  Li+  Li41  1  0.74390000  0.93136667  0.49300000  1.0
  Li+  Li42  1  0.73530000  0.17366667  0.74390000  1.0
  Li+  Li43  1  0.74390000  0.40196667  0.50700000  1.0
  Li+  Li44  1  0.50700000  0.41056667  0.73530000  1.0
  Li+  Li45  1  0.26470000  0.15966667  0.74390000  1.0
  Li+  Li46  1  0.25610000  0.93136667  0.50700000  1.0
  Li+  Li47  1  0.49300000  0.92276667  0.73530000  1.0
  Li+  Li48  1  0.24390000  0.67366667  0.23530000  1.0
  Li+  Li49  1  0.00700000  0.90196667  0.24390000  1.0
  Li+  Li50  1  0.23530000  0.91056667  0.00700000  1.0
  Li+  Li51  1  0.24390000  0.65966667  0.76470000  1.0
  Li+  Li52  1  0.00700000  0.43136667  0.75610000  1.0
  Li+  Li53  1  0.23530000  0.42276667  0.99300000  1.0
  Li+  Li54  1  0.75610000  0.67366667  0.76470000  1.0
  Li+  Li55  1  0.99300000  0.90196667  0.75610000  1.0
  Li+  Li56  1  0.76470000  0.91056667  0.99300000  1.0
  Li+  Li57  1  0.99300000  0.43136667  0.24390000  1.0
  Li+  Li58  1  0.76470000  0.42276667  0.00700000  1.0
  Li+  Li59  1  0.00000000  0.16666667  0.50000000  1.0
  Li+  Li60  1  0.50000000  0.66666667  0.50000000  1.0
  Li+  Li61  1  0.50000000  0.16666667  0.00000000  1.0
  Li+  Li62  1  0.00000000  0.66666667  0.50000000  1.0
  Li+  Li63  1  0.00000000  0.16666667  0.00000000  1.0
  Ge4+  Ge64  1  0.00000000  0.66666667  0.00000000  1.0
  Ge4+  Ge65  1  0.50000000  0.16666667  0.50000000  1.0
  Ge4+  Ge66  1  0.00000000  0.16666667  0.25000000  1.0
  Ge4+  Ge67  1  0.25000000  0.66666667  0.50000000  1.0
  Ge4+  Ge68  1  0.50000000  0.41666667  0.00000000  1.0
  Ge4+  Ge69  1  0.75000000  0.66666667  0.50000000  1.0
  Ge4+  Ge70  1  0.50000000  0.91666667  0.00000000  1.0
  Ge4+  Ge71  1  0.00000000  0.16666667  0.75000000  1.0
  P5+  P72  1  0.11670000  0.54996667  0.11670000  1.0
  P5+  P73  1  0.88330000  0.78336667  0.11670000  1.0
  P5+  P74  1  0.88330000  0.54996667  0.88330000  1.0
  P5+  P75  1  0.11670000  0.78336667  0.88330000  1.0
  P5+  P76  1  0.38330000  0.04996667  0.38330000  1.0
  P5+  P77  1  0.38330000  0.28336667  0.61670000  1.0
  P5+  P78  1  0.61670000  0.04996667  0.61670000  1.0
  P5+  P79  1  0.61670000  0.28336667  0.38330000  1.0
  P5+  P80  1  0.11235000  0.29219667  0.36558000  1.0
  P5+  P81  1  0.36558000  0.55431667  0.37447000  1.0
  P5+  P82  1  0.37447000  0.30108667  0.11235000  1.0
  P5+  P83  1  0.88765000  0.04113667  0.36558000  1.0
  P5+  P84  1  0.63442000  0.77901667  0.37447000  1.0
  P5+  P85  1  0.62553000  0.03224667  0.11235000  1.0
  P5+  P86  1  0.88765000  0.29219667  0.63442000  1.0
  P5+  P87  1  0.63442000  0.55431667  0.62553000  1.0
  P5+  P88  1  0.62553000  0.30108667  0.88765000  1.0
  P5+  P89  1  0.11235000  0.04113667  0.63442000  1.0
  P5+  P90  1  0.36558000  0.77901667  0.62553000  1.0
  P5+  P91  1  0.37447000  0.03224667  0.88765000  1.0
  P5+  P92  1  0.13442000  0.79219667  0.38765000  1.0
  P5+  P93  1  0.12553000  0.05431667  0.13442000  1.0
  P5+  P94  1  0.38765000  0.80108667  0.12553000  1.0
  P5+  P95  1  0.13442000  0.54113667  0.61235000  1.0
  P5+  P96  1  0.12553000  0.27901667  0.86558000  1.0
  P5+  P97  1  0.38765000  0.53224667  0.87447000  1.0
  P5+  P98  1  0.86558000  0.79219667  0.61235000  1.0
  P5+  P99  1  0.87447000  0.05431667  0.86558000  1.0
  P5+  P100  1  0.61235000  0.80108667  0.87447000  1.0
  P5+  P101  1  0.86558000  0.54113667  0.38765000  1.0
  P5+  P102  1  0.87447000  0.27901667  0.13442000  1.0
  P5+  P103  1  0.61235000  0.53224667  0.12553000  1.0
