# generated using pymatgen
data_Li8GeP4
_symmetry_space_group_name_H-M   'P 1'
_cell_length_a   11.77294000
_cell_length_b   11.77294000
_cell_length_c   11.77294000
_cell_angle_alpha   90.00000000
_cell_angle_beta   90.00000000
_cell_angle_gamma   90.00000000
_symmetry_Int_Tables_number   1
_chemical_formula_structural   Li8GeP4
_chemical_formula_sum   'Li64 Ge8 P32'
_cell_volume   1631.75439841
_cell_formula_units_Z   8
loop_
 _symmetry_equiv_pos_site_id
 _symmetry_equiv_pos_as_xyz
  1  'x, y, z'
loop_
 _atom_type_symbol
 _atom_type_oxidation_number
  Li+  1.0
  Ge4+  4.0
  P5+  5.0
loop_
 _atom_site_type_symbol
 _atom_site_label
 _atom_site_symmetry_multiplicity
 _atom_site_fract_x
 _atom_site_fract_y
 _atom_site_fract_z
 _atom_site_occupancy
  Li+  Li2  1  0.25000000  0.00000000  0.50000000  1.0
  Li+  Li2  1  0.00000000  0.50000000  0.25000000  1.0
  Li+  Li2  1  0.50000000  0.75000000  0.00000000  1.0
  Li+  Li2  1  0.75000000  0.00000000  0.50000000  1.0
  Li+  Li2  1  0.50000000  0.25000000  0.00000000  1.0
  Li+  Li2  1  0.00000000  0.50000000  0.75000000  1.0
  Li+  Li3  1  0.24500000  0.75500000  0.24500000  1.0
  Li+  Li3  1  0.75500000  0.24500000  0.24500000  1.0
  Li+  Li3  1  0.24500000  0.24500000  0.75500000  1.0
  Li+  Li3  1  0.75500000  0.75500000  0.75500000  1.0
  Li+  Li3  1  0.74500000  0.74500000  0.25500000  1.0
  Li+  Li3  1  0.25500000  0.74500000  0.74500000  1.0
  Li+  Li3  1  0.74500000  0.25500000  0.74500000  1.0
  Li+  Li3  1  0.25500000  0.25500000  0.25500000  1.0
  Li+  Li4  1  0.50000000  0.76000000  0.50000000  1.0
  Li+  Li4  1  0.24000000  0.50000000  0.50000000  1.0
  Li+  Li4  1  0.50000000  0.50000000  0.24000000  1.0
  Li+  Li4  1  0.50000000  0.24000000  0.50000000  1.0
  Li+  Li4  1  0.76000000  0.50000000  0.50000000  1.0
  Li+  Li4  1  0.50000000  0.50000000  0.76000000  1.0
  Li+  Li4  1  0.00000000  0.00000000  0.26000000  1.0
  Li+  Li4  1  0.74000000  0.00000000  0.00000000  1.0
  Li+  Li4  1  0.00000000  0.74000000  0.00000000  1.0
  Li+  Li4  1  0.00000000  0.00000000  0.74000000  1.0
  Li+  Li4  1  0.26000000  0.00000000  0.00000000  1.0
  Li+  Li4  1  0.00000000  0.26000000  0.00000000  1.0
  Li+  Li26  1  0.88100000  0.14650000  0.32800000  1.0
  Li+  Li27  1  0.85350000  0.32800000  0.11900000  1.0
  Li+  Li28  1  0.32800000  0.11900000  0.85350000  1.0
  Li+  Li29  1  0.11900000  0.14650000  0.67200000  1.0
  Li+  Li30  1  0.85350000  0.67200000  0.88100000  1.0
  Li+  Li31  1  0.82800000  0.64650000  0.38100000  1.0
  Li+  Li32  1  0.64650000  0.61900000  0.17200000  1.0
  Li+  Li33  1  0.38100000  0.82800000  0.64650000  1.0
  Li+  Li34  1  0.82800000  0.35350000  0.61900000  1.0
  Li+  Li35  1  0.17200000  0.35350000  0.38100000  1.0
  Li+  Li36  1  0.38100000  0.17200000  0.35350000  1.0
  Li+  Li37  1  0.35350000  0.38100000  0.17200000  1.0
  Li+  Li38  1  0.49300000  0.73530000  0.25610000  1.0
  Li+  Li39  1  0.26470000  0.74390000  0.49300000  1.0
  Li+  Li40  1  0.25610000  0.50700000  0.26470000  1.0
  Li+  Li41  1  0.73530000  0.25610000  0.49300000  1.0
  Li+  Li42  1  0.49300000  0.26470000  0.74390000  1.0
  Li+  Li43  1  0.26470000  0.25610000  0.50700000  1.0
  Li+  Li44  1  0.25610000  0.49300000  0.73530000  1.0
  Li+  Li45  1  0.50700000  0.73530000  0.74390000  1.0
  Li+  Li46  1  0.73530000  0.74390000  0.50700000  1.0
  Li+  Li47  1  0.74390000  0.50700000  0.73530000  1.0
  Li+  Li48  1  0.99300000  0.75610000  0.23530000  1.0
  Li+  Li49  1  0.76470000  0.99300000  0.24390000  1.0
  Li+  Li50  1  0.75610000  0.76470000  0.00700000  1.0
  Li+  Li51  1  0.00700000  0.75610000  0.76470000  1.0
  Li+  Li52  1  0.23530000  0.99300000  0.75610000  1.0
  Li+  Li53  1  0.24390000  0.76470000  0.99300000  1.0
  Li+  Li54  1  0.99300000  0.24390000  0.76470000  1.0
  Li+  Li55  1  0.76470000  0.00700000  0.75610000  1.0
  Li+  Li56  1  0.75610000  0.23530000  0.99300000  1.0
  Li+  Li57  1  0.23530000  0.00700000  0.24390000  1.0
  Li+  Li58  1  0.24390000  0.23530000  0.00700000  1.0
  Li+  Li59  1  0.50000000  0.00000000  0.50000000  1.0
  Li+  Li60  1  0.00000000  0.50000000  0.50000000  1.0
  Li+  Li61  1  0.50000000  0.50000000  0.00000000  1.0
  Li+  Li62  1  0.00000000  0.00000000  0.50000000  1.0
  Li+  Li63  1  0.50000000  0.00000000  0.00000000  1.0
  Ge4+  Ge1  1  0.00000000  0.00000000  0.00000000  1.0
  Ge4+  Ge1  1  0.50000000  0.50000000  0.50000000  1.0
  Ge4+  Ge2  1  0.50000000  0.00000000  0.25000000  1.0
  Ge4+  Ge2  1  0.00000000  0.75000000  0.50000000  1.0
  Ge4+  Ge2  1  0.25000000  0.50000000  0.00000000  1.0
  Ge4+  Ge2  1  0.00000000  0.25000000  0.50000000  1.0
  Ge4+  Ge2  1  0.75000000  0.50000000  0.00000000  1.0
  Ge4+  Ge2  1  0.50000000  0.00000000  0.75000000  1.0
  P5+  P1  1  0.11670000  0.88330000  0.11670000  1.0
  P5+  P1  1  0.88330000  0.11670000  0.11670000  1.0
  P5+  P1  1  0.11670000  0.11670000  0.88330000  1.0
  P5+  P1  1  0.88330000  0.88330000  0.88330000  1.0
  P5+  P1  1  0.61670000  0.61670000  0.38330000  1.0
  P5+  P1  1  0.38330000  0.61670000  0.61670000  1.0
  P5+  P1  1  0.61670000  0.38330000  0.61670000  1.0
  P5+  P1  1  0.38330000  0.38330000  0.38330000  1.0
  P5+  P2  1  0.37447000  0.88765000  0.36558000  1.0
  P5+  P2  1  0.11235000  0.63442000  0.37447000  1.0
  P5+  P2  1  0.36558000  0.62553000  0.11235000  1.0
  P5+  P2  1  0.62553000  0.11235000  0.36558000  1.0
  P5+  P2  1  0.88765000  0.36558000  0.37447000  1.0
  P5+  P2  1  0.63442000  0.37447000  0.11235000  1.0
  P5+  P2  1  0.37447000  0.11235000  0.63442000  1.0
  P5+  P2  1  0.11235000  0.36558000  0.62553000  1.0
  P5+  P2  1  0.36558000  0.37447000  0.88765000  1.0
  P5+  P2  1  0.62553000  0.88765000  0.63442000  1.0
  P5+  P2  1  0.88765000  0.63442000  0.62553000  1.0
  P5+  P2  1  0.63442000  0.62553000  0.88765000  1.0
  P5+  P2  1  0.87447000  0.86558000  0.38765000  1.0
  P5+  P2  1  0.61235000  0.87447000  0.13442000  1.0
  P5+  P2  1  0.86558000  0.61235000  0.12553000  1.0
  P5+  P2  1  0.12553000  0.86558000  0.61235000  1.0
  P5+  P2  1  0.38765000  0.87447000  0.86558000  1.0
  P5+  P2  1  0.13442000  0.61235000  0.87447000  1.0
  P5+  P2  1  0.87447000  0.13442000  0.61235000  1.0
  P5+  P2  1  0.61235000  0.12553000  0.86558000  1.0
  P5+  P2  1  0.86558000  0.38765000  0.87447000  1.0
  P5+  P2  1  0.12553000  0.13442000  0.38765000  1.0
  P5+  P2  1  0.38765000  0.12553000  0.13442000  1.0
  P5+  P2  1  0.13442000  0.38765000  0.12553000  1.0
