# generated using pymatgen
data_Li2CdCl4
_symmetry_space_group_name_H-M   'P 1'
_cell_length_a   15.04709088
_cell_length_b   15.04709088
_cell_length_c   15.04709088
_cell_angle_alpha   60.00000000
_cell_angle_beta   120.00000000
_cell_angle_gamma   120.00000000
_symmetry_Int_Tables_number   1
_chemical_formula_structural   Li2CdCl4
_chemical_formula_sum   'Li32 Cd16 Cl64'
_cell_volume   2409.03236178
_cell_formula_units_Z   16
loop_
 _symmetry_equiv_pos_site_id
 _symmetry_equiv_pos_as_xyz
  1  'x, y, z'
loop_
 _atom_type_symbol
 _atom_type_oxidation_number
  Li+  1.0
  Cd2+  2.0
  Cl-  -1.0
loop_
 _atom_site_type_symbol
 _atom_site_label
 _atom_site_symmetry_multiplicity
 _atom_site_fract_x
 _atom_site_fract_y
 _atom_site_fract_z
 _atom_site_occupancy
  Li+  Li0  1  0.06106712  0.94096415  0.69073858  1.0
  Li+  Li1  1  0.06105727  0.43556454  0.69090438  1.0
  Li+  Li2  1  0.06250000  0.93750000  0.18750000  1.0
  Li+  Li3  1  0.06250000  0.43750000  0.18750000  1.0
  Li+  Li4  1  0.56250000  0.93750000  0.68750000  1.0
  Li+  Li5  1  0.56530228  0.43752910  0.68616712  1.0
  Li+  Li6  1  0.56250000  0.93750000  0.18750000  1.0
  Li+  Li7  1  0.56250000  0.43750000  0.18750000  1.0
  Li+  Li8  1  0.43750000  0.56250000  0.31250000  1.0
  Li+  Li9  1  0.43283168  0.06202067  0.31543283  1.0
  Li+  Li10  1  0.43750000  0.56250000  0.81250000  1.0
  Li+  Li11  1  0.43824856  0.06651769  0.81524730  1.0
  Li+  Li12  1  0.93717842  0.56052250  0.31497283  1.0
  Li+  Li13  1  0.93750000  0.06250000  0.31250000  1.0
  Li+  Li14  1  0.93750000  0.56250000  0.81250000  1.0
  Li+  Li15  1  0.93750000  0.06250000  0.81250000  1.0
  Li+  Li16  1  0.25000000  0.50000000  0.50000000  1.0
  Li+  Li17  1  0.25000000  0.50000000  0.00000000  1.0
  Li+  Li18  1  0.25000000  0.00000000  0.00000000  1.0
  Li+  Li19  1  0.75176238  0.49934699  0.50271942  1.0
  Li+  Li20  1  0.75000000  0.00000000  0.50000000  1.0
  Li+  Li21  1  0.75000000  0.50000000  0.00000000  1.0
  Li+  Li22  1  0.25000000  0.75000000  0.75000000  1.0
  Li+  Li23  1  0.75000000  0.75000000  0.25000000  1.0
  Li+  Li24  1  0.75000000  0.25000000  0.25000000  1.0
  Li+  Li25  1  0.75000000  0.25000000  0.75000000  1.0
  Li+  Li26  1  0.00000000  0.75000000  0.00000000  1.0
  Li+  Li27  1  0.50000000  0.75000000  0.50000000  1.0
  Li+  Li28  1  0.49835748  0.24806805  0.50394662  1.0
  Li+  Li29  1  0.25000000  0.25000000  0.50000000  1.0
  Li+  Li30  1  0.25000000  0.75000000  0.00000000  1.0
  Li+  Li31  1  0.25000000  0.25000000  0.00000000  1.0
  Cd2+  Cd32  1  0.25000000  0.00000000  0.50000000  1.0
  Cd2+  Cd33  1  0.75000000  0.00000000  0.00000000  1.0
  Cd2+  Cd34  1  0.25000000  0.75000000  0.25000000  1.0
  Cd2+  Cd35  1  0.25000000  0.25000000  0.25000000  1.0
  Cd2+  Cd36  1  0.25000000  0.25000000  0.75000000  1.0
  Cd2+  Cd37  1  0.75000000  0.75000000  0.75000000  1.0
  Cd2+  Cd38  1  0.00000000  0.75000000  0.50000000  1.0
  Cd2+  Cd39  1  0.99946530  0.25439726  0.50328721  1.0
  Cd2+  Cd40  1  0.00000000  0.25000000  0.00000000  1.0
  Cd2+  Cd41  1  0.50193159  0.75215686  0.99716852  1.0
  Cd2+  Cd42  1  0.50000000  0.25000000  0.00000000  1.0
  Cd2+  Cd43  1  0.25000290  0.74618386  0.49901776  1.0
  Cd2+  Cd44  1  0.75000000  0.75000000  0.50000000  1.0
  Cd2+  Cd45  1  0.75000000  0.25000000  0.50000000  1.0
  Cd2+  Cd46  1  0.75000000  0.75000000  0.00000000  1.0
  Cd2+  Cd47  1  0.75000000  0.25000000  0.00000000  1.0
  Cl-  Cl48  1  0.12649362  0.63276984  0.62099808  1.0
  Cl-  Cl49  1  0.12750000  0.13250000  0.62250000  1.0
  Cl-  Cl50  1  0.12750000  0.63250000  0.12250000  1.0
  Cl-  Cl51  1  0.12776483  0.13728317  0.12318281  1.0
  Cl-  Cl52  1  0.62750000  0.63250000  0.62250000  1.0
  Cl-  Cl53  1  0.62847299  0.12918449  0.62544229  1.0
  Cl-  Cl54  1  0.62750000  0.63250000  0.12250000  1.0
  Cl-  Cl55  1  0.62750000  0.13250000  0.12250000  1.0
  Cl-  Cl56  1  0.12750000  0.87250000  0.38250000  1.0
  Cl-  Cl57  1  0.12750000  0.37250000  0.38250000  1.0
  Cl-  Cl58  1  0.12750000  0.87250000  0.88250000  1.0
  Cl-  Cl59  1  0.12750000  0.37250000  0.88250000  1.0
  Cl-  Cl60  1  0.62750000  0.87250000  0.38250000  1.0
  Cl-  Cl61  1  0.62750000  0.37250000  0.38250000  1.0
  Cl-  Cl62  1  0.62397173  0.87215707  0.88272146  1.0
  Cl-  Cl63  1  0.62750000  0.37250000  0.88250000  1.0
  Cl-  Cl64  1  0.36148974  0.87253276  0.62003584  1.0
  Cl-  Cl65  1  0.36648387  0.37209433  0.62210290  1.0
  Cl-  Cl66  1  0.36750000  0.87250000  0.12250000  1.0
  Cl-  Cl67  1  0.36750000  0.37250000  0.12250000  1.0
  Cl-  Cl68  1  0.86808936  0.86802885  0.62275196  1.0
  Cl-  Cl69  1  0.86750000  0.37250000  0.62250000  1.0
  Cl-  Cl70  1  0.86750000  0.87250000  0.12250000  1.0
  Cl-  Cl71  1  0.86845736  0.37023461  0.12797125  1.0
  Cl-  Cl72  1  0.12750000  0.87250000  0.62250000  1.0
  Cl-  Cl73  1  0.12241195  0.36958721  0.62523618  1.0
  Cl-  Cl74  1  0.12750000  0.87250000  0.12250000  1.0
  Cl-  Cl75  1  0.12735008  0.37461209  0.12337709  1.0
  Cl-  Cl76  1  0.62750000  0.87250000  0.62250000  1.0
  Cl-  Cl77  1  0.62750000  0.37250000  0.62250000  1.0
  Cl-  Cl78  1  0.62578663  0.86766423  0.12472753  1.0
  Cl-  Cl79  1  0.62750000  0.37250000  0.12250000  1.0
  Cl-  Cl80  1  0.37514764  0.86554138  0.37666324  1.0
  Cl-  Cl81  1  0.37250000  0.36750000  0.37750000  1.0
  Cl-  Cl82  1  0.37407125  0.86633889  0.87406817  1.0
  Cl-  Cl83  1  0.37250000  0.36750000  0.87750000  1.0
  Cl-  Cl84  1  0.87250000  0.86750000  0.37750000  1.0
  Cl-  Cl85  1  0.87512433  0.37100670  0.37712608  1.0
  Cl-  Cl86  1  0.87250000  0.86750000  0.87750000  1.0
  Cl-  Cl87  1  0.87250000  0.36750000  0.87750000  1.0
  Cl-  Cl88  1  0.37250000  0.62750000  0.61750000  1.0
  Cl-  Cl89  1  0.37250000  0.12750000  0.61750000  1.0
  Cl-  Cl90  1  0.37109993  0.62376617  0.11871906  1.0
  Cl-  Cl91  1  0.37250000  0.12750000  0.11750000  1.0
  Cl-  Cl92  1  0.87250000  0.62750000  0.61750000  1.0
  Cl-  Cl93  1  0.87250000  0.12750000  0.61750000  1.0
  Cl-  Cl94  1  0.87250000  0.62750000  0.11750000  1.0
  Cl-  Cl95  1  0.87250000  0.12750000  0.11750000  1.0
  Cl-  Cl96  1  0.13250000  0.62750000  0.37750000  1.0
  Cl-  Cl97  1  0.13250000  0.12750000  0.37750000  1.0
  Cl-  Cl98  1  0.13250000  0.62750000  0.87750000  1.0
  Cl-  Cl99  1  0.13250000  0.12750000  0.87750000  1.0
  Cl-  Cl100  1  0.63250000  0.62750000  0.37750000  1.0
  Cl-  Cl101  1  0.63250000  0.12750000  0.37750000  1.0
  Cl-  Cl102  1  0.63250000  0.62750000  0.87750000  1.0
  Cl-  Cl103  1  0.63250000  0.12750000  0.87750000  1.0
  Cl-  Cl104  1  0.37250000  0.62750000  0.37750000  1.0
  Cl-  Cl105  1  0.37250000  0.12750000  0.37750000  1.0
  Cl-  Cl106  1  0.37250000  0.62750000  0.87750000  1.0
  Cl-  Cl107  1  0.37250000  0.12750000  0.87750000  1.0
  Cl-  Cl108  1  0.87704645  0.62742203  0.38030039  1.0
  Cl-  Cl109  1  0.87250000  0.12750000  0.37750000  1.0
  Cl-  Cl110  1  0.87342389  0.62415625  0.87526056  1.0
  Cl-  Cl111  1  0.87250000  0.12750000  0.87750000  1.0
