# generated using pymatgen
data_Li2CdCl4
_symmetry_space_group_name_H-M   'P 1'
_cell_length_a   15.04709088
_cell_length_b   15.04709088
_cell_length_c   15.04709088
_cell_angle_alpha   60.00000000
_cell_angle_beta   60.00000000
_cell_angle_gamma   60.00000000
_symmetry_Int_Tables_number   1
_chemical_formula_structural   Li2CdCl4
_chemical_formula_sum   'Li32 Cd16 Cl64'
_cell_volume   2409.03236178
_cell_formula_units_Z   16
loop_
 _symmetry_equiv_pos_site_id
 _symmetry_equiv_pos_as_xyz
  1  'x, y, z'
loop_
 _atom_type_symbol
 _atom_type_oxidation_number
  Li+  1.0
  Cd2+  2.0
  Cl-  -1.0
loop_
 _atom_site_type_symbol
 _atom_site_label
 _atom_site_symmetry_multiplicity
 _atom_site_fract_x
 _atom_site_fract_y
 _atom_site_fract_z
 _atom_site_occupancy
  Li+  Li1  1  0.06250000  0.06250000  0.06250000  1.0
  Li+  Li1  1  0.06250000  0.06250000  0.56250000  1.0
  Li+  Li1  1  0.06250000  0.56250000  0.06250000  1.0
  Li+  Li1  1  0.06250000  0.56250000  0.56250000  1.0
  Li+  Li1  1  0.56250000  0.06250000  0.06250000  1.0
  Li+  Li1  1  0.56250000  0.06250000  0.56250000  1.0
  Li+  Li1  1  0.56250000  0.56250000  0.06250000  1.0
  Li+  Li1  1  0.56250000  0.56250000  0.56250000  1.0
  Li+  Li1  1  0.43750000  0.43750000  0.43750000  1.0
  Li+  Li1  1  0.43750000  0.43750000  0.93750000  1.0
  Li+  Li1  1  0.43750000  0.93750000  0.43750000  1.0
  Li+  Li1  1  0.43750000  0.93750000  0.93750000  1.0
  Li+  Li1  1  0.93750000  0.43750000  0.43750000  1.0
  Li+  Li1  1  0.93750000  0.43750000  0.93750000  1.0
  Li+  Li1  1  0.93750000  0.93750000  0.43750000  1.0
  Li+  Li1  1  0.93750000  0.93750000  0.93750000  1.0
  Li+  Li16  1  0.25000000  0.25000000  0.50000000  1.0
  Li+  Li17  1  0.25000000  0.75000000  0.50000000  1.0
  Li+  Li18  1  0.25000000  0.75000000  0.00000000  1.0
  Li+  Li19  1  0.75000000  0.25000000  0.50000000  1.0
  Li+  Li20  1  0.75000000  0.25000000  0.00000000  1.0
  Li+  Li21  1  0.75000000  0.75000000  0.50000000  1.0
  Li+  Li22  1  0.25000000  0.00000000  0.25000000  1.0
  Li+  Li23  1  0.75000000  0.50000000  0.25000000  1.0
  Li+  Li24  1  0.75000000  0.50000000  0.75000000  1.0
  Li+  Li25  1  0.75000000  0.00000000  0.75000000  1.0
  Li+  Li26  1  0.00000000  0.75000000  0.25000000  1.0
  Li+  Li27  1  0.50000000  0.25000000  0.25000000  1.0
  Li+  Li28  1  0.50000000  0.25000000  0.75000000  1.0
  Li+  Li29  1  0.25000000  0.25000000  0.75000000  1.0
  Li+  Li30  1  0.25000000  0.75000000  0.25000000  1.0
  Li+  Li31  1  0.25000000  0.75000000  0.75000000  1.0
  Cd2+  Cd32  1  0.25000000  0.25000000  0.00000000  1.0
  Cd2+  Cd33  1  0.75000000  0.75000000  0.00000000  1.0
  Cd2+  Cd34  1  0.25000000  0.50000000  0.25000000  1.0
  Cd2+  Cd35  1  0.25000000  0.50000000  0.75000000  1.0
  Cd2+  Cd36  1  0.25000000  0.00000000  0.75000000  1.0
  Cd2+  Cd37  1  0.75000000  0.00000000  0.25000000  1.0
  Cd2+  Cd38  1  0.00000000  0.25000000  0.25000000  1.0
  Cd2+  Cd39  1  0.00000000  0.25000000  0.75000000  1.0
  Cd2+  Cd40  1  0.00000000  0.75000000  0.75000000  1.0
  Cd2+  Cd41  1  0.50000000  0.75000000  0.25000000  1.0
  Cd2+  Cd42  1  0.50000000  0.75000000  0.75000000  1.0
  Cd2+  Cd43  1  0.25000000  0.25000000  0.25000000  1.0
  Cd2+  Cd44  1  0.75000000  0.25000000  0.25000000  1.0
  Cd2+  Cd45  1  0.75000000  0.25000000  0.75000000  1.0
  Cd2+  Cd46  1  0.75000000  0.75000000  0.25000000  1.0
  Cd2+  Cd47  1  0.75000000  0.75000000  0.75000000  1.0
  Cl-  Cl1  1  0.12750000  0.12750000  0.36750000  1.0
  Cl-  Cl1  1  0.12750000  0.12750000  0.86750000  1.0
  Cl-  Cl1  1  0.12750000  0.62750000  0.36750000  1.0
  Cl-  Cl1  1  0.12750000  0.62750000  0.86750000  1.0
  Cl-  Cl1  1  0.62750000  0.12750000  0.36750000  1.0
  Cl-  Cl1  1  0.62750000  0.12750000  0.86750000  1.0
  Cl-  Cl1  1  0.62750000  0.62750000  0.36750000  1.0
  Cl-  Cl1  1  0.62750000  0.62750000  0.86750000  1.0
  Cl-  Cl1  1  0.12750000  0.36750000  0.12750000  1.0
  Cl-  Cl1  1  0.12750000  0.36750000  0.62750000  1.0
  Cl-  Cl1  1  0.12750000  0.86750000  0.12750000  1.0
  Cl-  Cl1  1  0.12750000  0.86750000  0.62750000  1.0
  Cl-  Cl1  1  0.62750000  0.36750000  0.12750000  1.0
  Cl-  Cl1  1  0.62750000  0.36750000  0.62750000  1.0
  Cl-  Cl1  1  0.62750000  0.86750000  0.12750000  1.0
  Cl-  Cl1  1  0.62750000  0.86750000  0.62750000  1.0
  Cl-  Cl1  1  0.36750000  0.12750000  0.12750000  1.0
  Cl-  Cl1  1  0.36750000  0.12750000  0.62750000  1.0
  Cl-  Cl1  1  0.36750000  0.62750000  0.12750000  1.0
  Cl-  Cl1  1  0.36750000  0.62750000  0.62750000  1.0
  Cl-  Cl1  1  0.86750000  0.12750000  0.12750000  1.0
  Cl-  Cl1  1  0.86750000  0.12750000  0.62750000  1.0
  Cl-  Cl1  1  0.86750000  0.62750000  0.12750000  1.0
  Cl-  Cl1  1  0.86750000  0.62750000  0.62750000  1.0
  Cl-  Cl1  1  0.12750000  0.12750000  0.12750000  1.0
  Cl-  Cl1  1  0.12750000  0.12750000  0.62750000  1.0
  Cl-  Cl1  1  0.12750000  0.62750000  0.12750000  1.0
  Cl-  Cl1  1  0.12750000  0.62750000  0.62750000  1.0
  Cl-  Cl1  1  0.62750000  0.12750000  0.12750000  1.0
  Cl-  Cl1  1  0.62750000  0.12750000  0.62750000  1.0
  Cl-  Cl1  1  0.62750000  0.62750000  0.12750000  1.0
  Cl-  Cl1  1  0.62750000  0.62750000  0.62750000  1.0
  Cl-  Cl1  1  0.37250000  0.37250000  0.13250000  1.0
  Cl-  Cl1  1  0.37250000  0.37250000  0.63250000  1.0
  Cl-  Cl1  1  0.37250000  0.87250000  0.13250000  1.0
  Cl-  Cl1  1  0.37250000  0.87250000  0.63250000  1.0
  Cl-  Cl1  1  0.87250000  0.37250000  0.13250000  1.0
  Cl-  Cl1  1  0.87250000  0.37250000  0.63250000  1.0
  Cl-  Cl1  1  0.87250000  0.87250000  0.13250000  1.0
  Cl-  Cl1  1  0.87250000  0.87250000  0.63250000  1.0
  Cl-  Cl1  1  0.37250000  0.13250000  0.37250000  1.0
  Cl-  Cl1  1  0.37250000  0.13250000  0.87250000  1.0
  Cl-  Cl1  1  0.37250000  0.63250000  0.37250000  1.0
  Cl-  Cl1  1  0.37250000  0.63250000  0.87250000  1.0
  Cl-  Cl1  1  0.87250000  0.13250000  0.37250000  1.0
  Cl-  Cl1  1  0.87250000  0.13250000  0.87250000  1.0
  Cl-  Cl1  1  0.87250000  0.63250000  0.37250000  1.0
  Cl-  Cl1  1  0.87250000  0.63250000  0.87250000  1.0
  Cl-  Cl1  1  0.13250000  0.37250000  0.37250000  1.0
  Cl-  Cl1  1  0.13250000  0.37250000  0.87250000  1.0
  Cl-  Cl1  1  0.13250000  0.87250000  0.37250000  1.0
  Cl-  Cl1  1  0.13250000  0.87250000  0.87250000  1.0
  Cl-  Cl1  1  0.63250000  0.37250000  0.37250000  1.0
  Cl-  Cl1  1  0.63250000  0.37250000  0.87250000  1.0
  Cl-  Cl1  1  0.63250000  0.87250000  0.37250000  1.0
  Cl-  Cl1  1  0.63250000  0.87250000  0.87250000  1.0
  Cl-  Cl1  1  0.37250000  0.37250000  0.37250000  1.0
  Cl-  Cl1  1  0.37250000  0.37250000  0.87250000  1.0
  Cl-  Cl1  1  0.37250000  0.87250000  0.37250000  1.0
  Cl-  Cl1  1  0.37250000  0.87250000  0.87250000  1.0
  Cl-  Cl1  1  0.87250000  0.37250000  0.37250000  1.0
  Cl-  Cl1  1  0.87250000  0.37250000  0.87250000  1.0
  Cl-  Cl1  1  0.87250000  0.87250000  0.37250000  1.0
  Cl-  Cl1  1  0.87250000  0.87250000  0.87250000  1.0
