# generated using pymatgen
data_Li3InCl6
_symmetry_space_group_name_H-M   'P 1'
_cell_length_a   25.59200000
_cell_length_b   12.82284185
_cell_length_c   12.82284185
_cell_angle_alpha   119.78753061
_cell_angle_beta   99.78273705
_cell_angle_gamma   99.78273705
_symmetry_Int_Tables_number   1
_chemical_formula_structural   Li3InCl6
_chemical_formula_sum   'Li48 In16 Cl96'
_cell_volume   3436.08472326
_cell_formula_units_Z   16
loop_
 _symmetry_equiv_pos_site_id
 _symmetry_equiv_pos_as_xyz
  1  'x, y, z'
loop_
 _atom_type_symbol
 _atom_type_oxidation_number
  Li+  1.0
  In3+  3.0
  Cl-  -1.0
loop_
 _atom_site_type_symbol
 _atom_site_label
 _atom_site_symmetry_multiplicity
 _atom_site_fract_x
 _atom_site_fract_y
 _atom_site_fract_z
 _atom_site_occupancy
  Li+  Li1  1  0.12500000  0.41585000  0.08415000  1.0
  Li+  Li1  1  0.62500000  0.41585000  0.08415000  1.0
  Li+  Li1  1  0.12500000  0.41585000  0.58415000  1.0
  Li+  Li1  1  0.62500000  0.41585000  0.58415000  1.0
  Li+  Li1  1  0.12500000  0.91585000  0.08415000  1.0
  Li+  Li1  1  0.62500000  0.91585000  0.08415000  1.0
  Li+  Li1  1  0.12500000  0.91585000  0.58415000  1.0
  Li+  Li1  1  0.62500000  0.91585000  0.58415000  1.0
  Li+  Li1  1  0.37500000  0.41585000  0.08415000  1.0
  Li+  Li1  1  0.87500000  0.41585000  0.08415000  1.0
  Li+  Li1  1  0.37500000  0.41585000  0.58415000  1.0
  Li+  Li1  1  0.87500000  0.41585000  0.58415000  1.0
  Li+  Li1  1  0.37500000  0.91585000  0.08415000  1.0
  Li+  Li1  1  0.87500000  0.91585000  0.08415000  1.0
  Li+  Li1  1  0.37500000  0.91585000  0.58415000  1.0
  Li+  Li1  1  0.87500000  0.91585000  0.58415000  1.0
  Li+  Li1  1  0.12500000  0.08415000  0.41585000  1.0
  Li+  Li1  1  0.62500000  0.08415000  0.41585000  1.0
  Li+  Li1  1  0.12500000  0.08415000  0.91585000  1.0
  Li+  Li1  1  0.62500000  0.08415000  0.91585000  1.0
  Li+  Li1  1  0.12500000  0.58415000  0.41585000  1.0
  Li+  Li1  1  0.62500000  0.58415000  0.41585000  1.0
  Li+  Li1  1  0.12500000  0.58415000  0.91585000  1.0
  Li+  Li1  1  0.62500000  0.58415000  0.91585000  1.0
  Li+  Li1  1  0.37500000  0.08415000  0.41585000  1.0
  Li+  Li1  1  0.87500000  0.08415000  0.41585000  1.0
  Li+  Li1  1  0.37500000  0.08415000  0.91585000  1.0
  Li+  Li1  1  0.87500000  0.08415000  0.91585000  1.0
  Li+  Li1  1  0.37500000  0.58415000  0.41585000  1.0
  Li+  Li1  1  0.87500000  0.58415000  0.41585000  1.0
  Li+  Li1  1  0.37500000  0.58415000  0.91585000  1.0
  Li+  Li1  1  0.87500000  0.58415000  0.91585000  1.0
  Li+  Li2  1  0.12500000  0.25000000  0.25000000  1.0
  Li+  Li2  1  0.62500000  0.25000000  0.25000000  1.0
  Li+  Li2  1  0.12500000  0.25000000  0.75000000  1.0
  Li+  Li2  1  0.62500000  0.25000000  0.75000000  1.0
  Li+  Li2  1  0.12500000  0.75000000  0.25000000  1.0
  Li+  Li2  1  0.62500000  0.75000000  0.25000000  1.0
  Li+  Li2  1  0.12500000  0.75000000  0.75000000  1.0
  Li+  Li2  1  0.62500000  0.75000000  0.75000000  1.0
  Li+  Li2  1  0.37500000  0.25000000  0.25000000  1.0
  Li+  Li2  1  0.87500000  0.25000000  0.25000000  1.0
  Li+  Li2  1  0.37500000  0.25000000  0.75000000  1.0
  Li+  Li2  1  0.87500000  0.25000000  0.75000000  1.0
  Li+  Li2  1  0.37500000  0.75000000  0.25000000  1.0
  Li+  Li2  1  0.87500000  0.75000000  0.25000000  1.0
  Li+  Li2  1  0.37500000  0.75000000  0.75000000  1.0
  Li+  Li2  1  0.87500000  0.75000000  0.75000000  1.0
  In3+  In24  1  0.00000000  0.33333333  0.66666667  1.0
  In3+  In24  1  0.50000000  0.33333333  0.66666667  1.0
  In3+  In25  1  0.00000000  0.00000000  0.00000000  1.0
  In3+  In25  1  0.50000000  0.00000000  0.00000000  1.0
  In3+  In26  1  0.00000000  0.00000000  0.50000000  1.0
  In3+  In26  1  0.50000000  0.00000000  0.50000000  1.0
  In3+  In27  1  0.00000000  0.50000000  0.00000000  1.0
  In3+  In27  1  0.50000000  0.50000000  0.00000000  1.0
  In3+  In28  1  0.25000000  0.00000000  0.00000000  1.0
  In3+  In28  1  0.75000000  0.00000000  0.00000000  1.0
  In3+  In29  1  0.25000000  0.00000000  0.50000000  1.0
  In3+  In29  1  0.75000000  0.00000000  0.50000000  1.0
  In3+  In30  1  0.25000000  0.50000000  0.00000000  1.0
  In3+  In30  1  0.75000000  0.50000000  0.00000000  1.0
  In3+  In31  1  0.25000000  0.50000000  0.50000000  1.0
  In3+  In31  1  0.75000000  0.50000000  0.50000000  1.0
  Cl-  Cl1  1  0.05970000  0.03995000  0.20215000  1.0
  Cl-  Cl1  1  0.55970000  0.03995000  0.20215000  1.0
  Cl-  Cl1  1  0.05970000  0.03995000  0.70215000  1.0
  Cl-  Cl1  1  0.55970000  0.03995000  0.70215000  1.0
  Cl-  Cl1  1  0.05970000  0.53995000  0.20215000  1.0
  Cl-  Cl1  1  0.55970000  0.53995000  0.20215000  1.0
  Cl-  Cl1  1  0.05970000  0.53995000  0.70215000  1.0
  Cl-  Cl1  1  0.55970000  0.53995000  0.70215000  1.0
  Cl-  Cl1  1  0.30970000  0.03995000  0.20215000  1.0
  Cl-  Cl1  1  0.80970000  0.03995000  0.20215000  1.0
  Cl-  Cl1  1  0.30970000  0.03995000  0.70215000  1.0
  Cl-  Cl1  1  0.80970000  0.03995000  0.70215000  1.0
  Cl-  Cl1  1  0.30970000  0.53995000  0.20215000  1.0
  Cl-  Cl1  1  0.80970000  0.53995000  0.20215000  1.0
  Cl-  Cl1  1  0.30970000  0.53995000  0.70215000  1.0
  Cl-  Cl1  1  0.80970000  0.53995000  0.70215000  1.0
  Cl-  Cl1  1  0.05970000  0.20215000  0.03995000  1.0
  Cl-  Cl1  1  0.55970000  0.20215000  0.03995000  1.0
  Cl-  Cl1  1  0.05970000  0.20215000  0.53995000  1.0
  Cl-  Cl1  1  0.55970000  0.20215000  0.53995000  1.0
  Cl-  Cl1  1  0.05970000  0.70215000  0.03995000  1.0
  Cl-  Cl1  1  0.55970000  0.70215000  0.03995000  1.0
  Cl-  Cl1  1  0.05970000  0.70215000  0.53995000  1.0
  Cl-  Cl1  1  0.55970000  0.70215000  0.53995000  1.0
  Cl-  Cl1  1  0.30970000  0.20215000  0.03995000  1.0
  Cl-  Cl1  1  0.80970000  0.20215000  0.03995000  1.0
  Cl-  Cl1  1  0.30970000  0.20215000  0.53995000  1.0
  Cl-  Cl1  1  0.80970000  0.20215000  0.53995000  1.0
  Cl-  Cl1  1  0.30970000  0.70215000  0.03995000  1.0
  Cl-  Cl1  1  0.80970000  0.70215000  0.03995000  1.0
  Cl-  Cl1  1  0.30970000  0.70215000  0.53995000  1.0
  Cl-  Cl1  1  0.80970000  0.70215000  0.53995000  1.0
  Cl-  Cl1  1  0.19030000  0.46005000  0.29785000  1.0
  Cl-  Cl1  1  0.69030000  0.46005000  0.29785000  1.0
  Cl-  Cl1  1  0.19030000  0.46005000  0.79785000  1.0
  Cl-  Cl1  1  0.69030000  0.46005000  0.79785000  1.0
  Cl-  Cl1  1  0.19030000  0.96005000  0.29785000  1.0
  Cl-  Cl1  1  0.69030000  0.96005000  0.29785000  1.0
  Cl-  Cl1  1  0.19030000  0.96005000  0.79785000  1.0
  Cl-  Cl1  1  0.69030000  0.96005000  0.79785000  1.0
  Cl-  Cl1  1  0.44030000  0.46005000  0.29785000  1.0
  Cl-  Cl1  1  0.94030000  0.46005000  0.29785000  1.0
  Cl-  Cl1  1  0.44030000  0.46005000  0.79785000  1.0
  Cl-  Cl1  1  0.94030000  0.46005000  0.79785000  1.0
  Cl-  Cl1  1  0.44030000  0.96005000  0.29785000  1.0
  Cl-  Cl1  1  0.94030000  0.96005000  0.29785000  1.0
  Cl-  Cl1  1  0.44030000  0.96005000  0.79785000  1.0
  Cl-  Cl1  1  0.94030000  0.96005000  0.79785000  1.0
  Cl-  Cl1  1  0.19030000  0.29785000  0.46005000  1.0
  Cl-  Cl1  1  0.69030000  0.29785000  0.46005000  1.0
  Cl-  Cl1  1  0.19030000  0.29785000  0.96005000  1.0
  Cl-  Cl1  1  0.69030000  0.29785000  0.96005000  1.0
  Cl-  Cl1  1  0.19030000  0.79785000  0.46005000  1.0
  Cl-  Cl1  1  0.69030000  0.79785000  0.46005000  1.0
  Cl-  Cl1  1  0.19030000  0.79785000  0.96005000  1.0
  Cl-  Cl1  1  0.69030000  0.79785000  0.96005000  1.0
  Cl-  Cl1  1  0.44030000  0.29785000  0.46005000  1.0
  Cl-  Cl1  1  0.94030000  0.29785000  0.46005000  1.0
  Cl-  Cl1  1  0.44030000  0.29785000  0.96005000  1.0
  Cl-  Cl1  1  0.94030000  0.29785000  0.96005000  1.0
  Cl-  Cl1  1  0.44030000  0.79785000  0.46005000  1.0
  Cl-  Cl1  1  0.94030000  0.79785000  0.46005000  1.0
  Cl-  Cl1  1  0.44030000  0.79785000  0.96005000  1.0
  Cl-  Cl1  1  0.94030000  0.79785000  0.96005000  1.0
  Cl-  Cl2  1  0.19155000  0.12250000  0.12250000  1.0
  Cl-  Cl2  1  0.69155000  0.12250000  0.12250000  1.0
  Cl-  Cl2  1  0.19155000  0.12250000  0.62250000  1.0
  Cl-  Cl2  1  0.69155000  0.12250000  0.62250000  1.0
  Cl-  Cl2  1  0.19155000  0.62250000  0.12250000  1.0
  Cl-  Cl2  1  0.69155000  0.62250000  0.12250000  1.0
  Cl-  Cl2  1  0.19155000  0.62250000  0.62250000  1.0
  Cl-  Cl2  1  0.69155000  0.62250000  0.62250000  1.0
  Cl-  Cl2  1  0.44155000  0.12250000  0.12250000  1.0
  Cl-  Cl2  1  0.94155000  0.12250000  0.12250000  1.0
  Cl-  Cl2  1  0.44155000  0.12250000  0.62250000  1.0
  Cl-  Cl2  1  0.94155000  0.12250000  0.62250000  1.0
  Cl-  Cl2  1  0.44155000  0.62250000  0.12250000  1.0
  Cl-  Cl2  1  0.94155000  0.62250000  0.12250000  1.0
  Cl-  Cl2  1  0.44155000  0.62250000  0.62250000  1.0
  Cl-  Cl2  1  0.94155000  0.62250000  0.62250000  1.0
  Cl-  Cl2  1  0.05845000  0.37750000  0.37750000  1.0
  Cl-  Cl2  1  0.55845000  0.37750000  0.37750000  1.0
  Cl-  Cl2  1  0.05845000  0.37750000  0.87750000  1.0
  Cl-  Cl2  1  0.55845000  0.37750000  0.87750000  1.0
  Cl-  Cl2  1  0.05845000  0.87750000  0.37750000  1.0
  Cl-  Cl2  1  0.55845000  0.87750000  0.37750000  1.0
  Cl-  Cl2  1  0.05845000  0.87750000  0.87750000  1.0
  Cl-  Cl2  1  0.55845000  0.87750000  0.87750000  1.0
  Cl-  Cl2  1  0.30845000  0.37750000  0.37750000  1.0
  Cl-  Cl2  1  0.80845000  0.37750000  0.37750000  1.0
  Cl-  Cl2  1  0.30845000  0.37750000  0.87750000  1.0
  Cl-  Cl2  1  0.80845000  0.37750000  0.87750000  1.0
  Cl-  Cl2  1  0.30845000  0.87750000  0.37750000  1.0
  Cl-  Cl2  1  0.80845000  0.87750000  0.37750000  1.0
  Cl-  Cl2  1  0.30845000  0.87750000  0.87750000  1.0
  Cl-  Cl2  1  0.80845000  0.87750000  0.87750000  1.0
