# generated using pymatgen
data_Li2PNO2
_symmetry_space_group_name_H-M   'P 1'
_cell_length_a   18.74240000
_cell_length_b   10.55506081
_cell_length_c   10.55506081
_cell_angle_alpha   118.45994557
_cell_angle_beta   90.00000000
_cell_angle_gamma   90.00000000
_symmetry_Int_Tables_number   1
_chemical_formula_structural   Li2PNO2
_chemical_formula_sum   'Li64 P32 N32 O64'
_cell_volume   1835.73460513
_cell_formula_units_Z   32
loop_
 _symmetry_equiv_pos_site_id
 _symmetry_equiv_pos_as_xyz
  1  'x, y, z'
loop_
 _atom_type_symbol
 _atom_type_oxidation_number
  Li+  1.0
  P5+  5.0
  N3-  -3.0
  O2-  -2.0
loop_
 _atom_site_type_symbol
 _atom_site_label
 _atom_site_symmetry_multiplicity
 _atom_site_fract_x
 _atom_site_fract_y
 _atom_site_fract_z
 _atom_site_occupancy
  Li+  Li0  1  0.12075000  0.84505000  0.26695000  1.0
  Li+  Li1  1  0.62075000  0.84505000  0.26695000  1.0
  Li+  Li2  1  0.12075000  0.34505000  0.26695000  1.0
  Li+  Li3  1  0.62004522  0.34702724  0.26954041  1.0
  Li+  Li4  1  0.12477750  0.84322411  0.76365248  1.0
  Li+  Li5  1  0.62075000  0.84505000  0.76695000  1.0
  Li+  Li6  1  0.12075000  0.34505000  0.76695000  1.0
  Li+  Li7  1  0.62095219  0.34804972  0.76672466  1.0
  Li+  Li8  1  0.37075000  0.84505000  0.26695000  1.0
  Li+  Li9  1  0.87075000  0.84505000  0.26695000  1.0
  Li+  Li10  1  0.37315735  0.34260886  0.26963180  1.0
  Li+  Li11  1  0.87075000  0.34505000  0.26695000  1.0
  Li+  Li12  1  0.37075000  0.84505000  0.76695000  1.0
  Li+  Li13  1  0.87075000  0.84505000  0.76695000  1.0
  Li+  Li14  1  0.37075000  0.34505000  0.76695000  1.0
  Li+  Li15  1  0.87075000  0.34505000  0.76695000  1.0
  Li+  Li16  1  0.12075000  0.51695000  0.59505000  1.0
  Li+  Li17  1  0.62075000  0.51695000  0.59505000  1.0
  Li+  Li18  1  0.12075000  0.01695000  0.59505000  1.0
  Li+  Li19  1  0.62075000  0.01695000  0.59505000  1.0
  Li+  Li20  1  0.12075000  0.51695000  0.09505000  1.0
  Li+  Li21  1  0.62075000  0.51695000  0.09505000  1.0
  Li+  Li22  1  0.12075000  0.01695000  0.09505000  1.0
  Li+  Li23  1  0.62075000  0.01695000  0.09505000  1.0
  Li+  Li24  1  0.37075000  0.51695000  0.59505000  1.0
  Li+  Li25  1  0.87075000  0.51695000  0.59505000  1.0
  Li+  Li26  1  0.37014018  0.01903582  0.59420459  1.0
  Li+  Li27  1  0.87075000  0.01695000  0.59505000  1.0
  Li+  Li28  1  0.37075000  0.51695000  0.09505000  1.0
  Li+  Li29  1  0.87075000  0.51695000  0.09505000  1.0
  Li+  Li30  1  0.36922058  0.01689223  0.09577995  1.0
  Li+  Li31  1  0.87075000  0.01695000  0.09505000  1.0
  Li+  Li32  1  0.24575000  0.65495000  0.73305000  1.0
  Li+  Li33  1  0.74575000  0.65495000  0.73305000  1.0
  Li+  Li34  1  0.24575000  0.15495000  0.73305000  1.0
  Li+  Li35  1  0.74575000  0.15495000  0.73305000  1.0
  Li+  Li36  1  0.24575000  0.65495000  0.23305000  1.0
  Li+  Li37  1  0.74553130  0.65480461  0.23666798  1.0
  Li+  Li38  1  0.24575000  0.15495000  0.23305000  1.0
  Li+  Li39  1  0.74575000  0.15495000  0.23305000  1.0
  Li+  Li40  1  0.49575000  0.65495000  0.73305000  1.0
  Li+  Li41  1  0.99575000  0.65495000  0.73305000  1.0
  Li+  Li42  1  0.49575000  0.15495000  0.73305000  1.0
  Li+  Li43  1  0.99575000  0.15495000  0.73305000  1.0
  Li+  Li44  1  0.49575000  0.65495000  0.23305000  1.0
  Li+  Li45  1  0.99575000  0.65495000  0.23305000  1.0
  Li+  Li46  1  0.49575000  0.15495000  0.23305000  1.0
  Li+  Li47  1  0.99575000  0.15495000  0.23305000  1.0
  Li+  Li48  1  0.24575000  0.98305000  0.40495000  1.0
  Li+  Li49  1  0.74575000  0.98305000  0.40495000  1.0
  Li+  Li50  1  0.24575000  0.48305000  0.40495000  1.0
  Li+  Li51  1  0.74680847  0.48174002  0.39958835  1.0
  Li+  Li52  1  0.24575000  0.98305000  0.90495000  1.0
  Li+  Li53  1  0.74575000  0.98305000  0.90495000  1.0
  Li+  Li54  1  0.24575000  0.48305000  0.90495000  1.0
  Li+  Li55  1  0.74297033  0.48339546  0.90155280  1.0
  Li+  Li56  1  0.49575000  0.98305000  0.40495000  1.0
  Li+  Li57  1  0.99575000  0.98305000  0.40495000  1.0
  Li+  Li58  1  0.49575000  0.48305000  0.40495000  1.0
  Li+  Li59  1  0.99575000  0.48305000  0.40495000  1.0
  Li+  Li60  1  0.49575000  0.98305000  0.90495000  1.0
  Li+  Li61  1  0.99593726  0.98359987  0.90826513  1.0
  Li+  Li62  1  0.49575000  0.48305000  0.90495000  1.0
  Li+  Li63  1  0.99570256  0.48452635  0.90440485  1.0
  P5+  P64  1  0.12500000  0.67070000  0.42070000  1.0
  P5+  P65  1  0.62500000  0.67070000  0.42070000  1.0
  P5+  P66  1  0.12537807  0.17008167  0.42175946  1.0
  P5+  P67  1  0.62545501  0.17099334  0.42213563  1.0
  P5+  P68  1  0.12500000  0.67070000  0.92070000  1.0
  P5+  P69  1  0.62500000  0.67070000  0.92070000  1.0
  P5+  P70  1  0.12820681  0.17414230  0.91981255  1.0
  P5+  P71  1  0.62500000  0.17070000  0.92070000  1.0
  P5+  P72  1  0.37500000  0.67070000  0.42070000  1.0
  P5+  P73  1  0.87500000  0.67070000  0.42070000  1.0
  P5+  P74  1  0.37500000  0.17070000  0.42070000  1.0
  P5+  P75  1  0.87500000  0.17070000  0.42070000  1.0
  P5+  P76  1  0.37627602  0.67124208  0.92146127  1.0
  P5+  P77  1  0.87500000  0.67070000  0.92070000  1.0
  P5+  P78  1  0.37785256  0.16838897  0.92231204  1.0
  P5+  P79  1  0.87500000  0.17070000  0.92070000  1.0
  P5+  P80  1  0.00000000  0.82930000  0.57930000  1.0
  P5+  P81  1  0.50000000  0.82930000  0.57930000  1.0
  P5+  P82  1  0.00000000  0.32930000  0.57930000  1.0
  P5+  P83  1  0.50000000  0.32930000  0.57930000  1.0
  P5+  P84  1  0.00000000  0.82930000  0.07930000  1.0
  P5+  P85  1  0.49990777  0.83068119  0.08224095  1.0
  P5+  P86  1  0.00000000  0.32930000  0.07930000  1.0
  P5+  P87  1  0.50000000  0.32930000  0.07930000  1.0
  P5+  P88  1  0.24982623  0.83236435  0.57742412  1.0
  P5+  P89  1  0.75000000  0.82930000  0.57930000  1.0
  P5+  P90  1  0.25000000  0.32930000  0.57930000  1.0
  P5+  P91  1  0.75000000  0.32930000  0.57930000  1.0
  P5+  P92  1  0.25000000  0.82930000  0.07930000  1.0
  P5+  P93  1  0.75332665  0.82977587  0.07688826  1.0
  P5+  P94  1  0.25000000  0.32930000  0.07930000  1.0
  P5+  P95  1  0.75000000  0.32930000  0.07930000  1.0
  N3-  N96  1  0.08850000  0.81550000  0.56550000  1.0
  N3-  N97  1  0.58627978  0.81539529  0.56221181  1.0
  N3-  N98  1  0.08850000  0.31550000  0.56550000  1.0
  N3-  N99  1  0.58850000  0.31550000  0.56550000  1.0
  N3-  N100  1  0.08850000  0.81550000  0.06550000  1.0
  N3-  N101  1  0.58850000  0.81550000  0.06550000  1.0
  N3-  N102  1  0.08608645  0.31414855  0.06302302  1.0
  N3-  N103  1  0.58850000  0.31550000  0.06550000  1.0
  N3-  N104  1  0.33850000  0.81550000  0.56550000  1.0
  N3-  N105  1  0.83850000  0.81550000  0.56550000  1.0
  N3-  N106  1  0.33850000  0.31550000  0.56550000  1.0
  N3-  N107  1  0.83697556  0.31332665  0.56413819  1.0
  N3-  N108  1  0.33850000  0.81550000  0.06550000  1.0
  N3-  N109  1  0.83850000  0.81550000  0.06550000  1.0
  N3-  N110  1  0.33850000  0.31550000  0.06550000  1.0
  N3-  N111  1  0.83850000  0.31550000  0.06550000  1.0
  N3-  N112  1  0.21350000  0.68450000  0.43450000  1.0
  N3-  N113  1  0.71350000  0.68450000  0.43450000  1.0
  N3-  N114  1  0.21270984  0.18101719  0.43349419  1.0
  N3-  N115  1  0.71399405  0.18486358  0.43193715  1.0
  N3-  N116  1  0.21258676  0.68432935  0.93680334  1.0
  N3-  N117  1  0.71290533  0.67647003  0.93312023  1.0
  N3-  N118  1  0.21350000  0.18450000  0.93450000  1.0
  N3-  N119  1  0.71722196  0.18333126  0.93166156  1.0
  N3-  N120  1  0.46611719  0.68406868  0.43302843  1.0
  N3-  N121  1  0.96350000  0.68450000  0.43450000  1.0
  N3-  N122  1  0.46350000  0.18450000  0.43450000  1.0
  N3-  N123  1  0.96350000  0.18450000  0.43450000  1.0
  N3-  N124  1  0.46350000  0.68450000  0.93450000  1.0
  N3-  N125  1  0.95922182  0.68417675  0.93374855  1.0
  N3-  N126  1  0.46350000  0.18450000  0.93450000  1.0
  N3-  N127  1  0.95905978  0.18505414  0.93193439  1.0
  O2-  O128  1  0.10475000  0.52160000  0.41980000  1.0
  O2-  O129  1  0.60475000  0.52160000  0.41980000  1.0
  O2-  O130  1  0.10475000  0.02160000  0.41980000  1.0
  O2-  O131  1  0.60475000  0.02160000  0.41980000  1.0
  O2-  O132  1  0.10475000  0.52160000  0.91980000  1.0
  O2-  O133  1  0.60475000  0.52160000  0.91980000  1.0
  O2-  O134  1  0.10475000  0.02160000  0.91980000  1.0
  O2-  O135  1  0.60590806  0.02296744  0.91690455  1.0
  O2-  O136  1  0.35475000  0.52160000  0.41980000  1.0
  O2-  O137  1  0.85475000  0.52160000  0.41980000  1.0
  O2-  O138  1  0.36057975  0.01663010  0.41687451  1.0
  O2-  O139  1  0.85475000  0.02160000  0.41980000  1.0
  O2-  O140  1  0.35475000  0.52160000  0.91980000  1.0
  O2-  O141  1  0.85475000  0.52160000  0.91980000  1.0
  O2-  O142  1  0.35475000  0.02160000  0.91980000  1.0
  O2-  O143  1  0.85770556  0.02300653  0.92180602  1.0
  O2-  O144  1  0.10475000  0.66980000  0.27160000  1.0
  O2-  O145  1  0.60433515  0.66926007  0.26932075  1.0
  O2-  O146  1  0.10349880  0.16774743  0.27213488  1.0
  O2-  O147  1  0.60645009  0.16886430  0.27064645  1.0
  O2-  O148  1  0.11402732  0.66997423  0.77210836  1.0
  O2-  O149  1  0.60475000  0.66980000  0.77160000  1.0
  O2-  O150  1  0.10475000  0.16980000  0.77160000  1.0
  O2-  O151  1  0.60284734  0.16890893  0.76815509  1.0
  O2-  O152  1  0.35475000  0.66980000  0.27160000  1.0
  O2-  O153  1  0.85303836  0.67204544  0.27015937  1.0
  O2-  O154  1  0.35475000  0.16980000  0.27160000  1.0
  O2-  O155  1  0.85475000  0.16980000  0.27160000  1.0
  O2-  O156  1  0.35231245  0.66971491  0.76945170  1.0
  O2-  O157  1  0.85475000  0.66980000  0.77160000  1.0
  O2-  O158  1  0.35475000  0.16980000  0.77160000  1.0
  O2-  O159  1  0.85475000  0.16980000  0.77160000  1.0
  O2-  O160  1  0.22975000  0.97840000  0.58020000  1.0
  O2-  O161  1  0.72975000  0.97840000  0.58020000  1.0
  O2-  O162  1  0.22975000  0.47840000  0.58020000  1.0
  O2-  O163  1  0.72975000  0.47840000  0.58020000  1.0
  O2-  O164  1  0.23311058  0.98158606  0.07745213  1.0
  O2-  O165  1  0.72975000  0.97840000  0.08020000  1.0
  O2-  O166  1  0.22975000  0.47840000  0.08020000  1.0
  O2-  O167  1  0.72975000  0.47840000  0.08020000  1.0
  O2-  O168  1  0.47975000  0.97840000  0.58020000  1.0
  O2-  O169  1  0.97975000  0.97840000  0.58020000  1.0
  O2-  O170  1  0.47975000  0.47840000  0.58020000  1.0
  O2-  O171  1  0.98328707  0.47806702  0.57927644  1.0
  O2-  O172  1  0.48148193  0.97572534  0.08530088  1.0
  O2-  O173  1  0.98348475  0.97510233  0.08092383  1.0
  O2-  O174  1  0.47975000  0.47840000  0.08020000  1.0
  O2-  O175  1  0.98046273  0.47877278  0.08197258  1.0
  O2-  O176  1  0.22975000  0.83020000  0.72840000  1.0
  O2-  O177  1  0.72975000  0.83020000  0.72840000  1.0
  O2-  O178  1  0.22975000  0.33020000  0.72840000  1.0
  O2-  O179  1  0.72975000  0.33020000  0.72840000  1.0
  O2-  O180  1  0.22975000  0.83020000  0.22840000  1.0
  O2-  O181  1  0.72975000  0.83020000  0.22840000  1.0
  O2-  O182  1  0.22454016  0.32945769  0.22901887  1.0
  O2-  O183  1  0.73434360  0.33656643  0.23094777  1.0
  O2-  O184  1  0.47975000  0.83020000  0.72840000  1.0
  O2-  O185  1  0.97975000  0.83020000  0.72840000  1.0
  O2-  O186  1  0.47975000  0.33020000  0.72840000  1.0
  O2-  O187  1  0.97975000  0.33020000  0.72840000  1.0
  O2-  O188  1  0.47975000  0.83020000  0.22840000  1.0
  O2-  O189  1  0.98254019  0.83071828  0.22973770  1.0
  O2-  O190  1  0.47975000  0.33020000  0.22840000  1.0
  O2-  O191  1  0.97975000  0.33020000  0.22840000  1.0
