# generated using pymatgen
data_Li2PNO2
_symmetry_space_group_name_H-M   'P 1'
_cell_length_a   10.60193270
_cell_length_b   18.82562943
_cell_length_c   10.60193270
_cell_angle_alpha   90.00000000
_cell_angle_beta   61.54005443
_cell_angle_gamma   90.00000000
_symmetry_Int_Tables_number   1
_chemical_formula_structural   Li2PNO2
_chemical_formula_sum   'Li64 P32 N32 O64'
_cell_volume   1860.29922333
_cell_formula_units_Z   32
loop_
 _symmetry_equiv_pos_site_id
 _symmetry_equiv_pos_as_xyz
  1  'x, y, z'
loop_
 _atom_type_symbol
 _atom_type_oxidation_number
  Li+  1.0
  P5+  5.0
  N3-  -3.0
  O2-  -2.0
loop_
 _atom_site_type_symbol
 _atom_site_label
 _atom_site_symmetry_multiplicity
 _atom_site_fract_x
 _atom_site_fract_y
 _atom_site_fract_z
 _atom_site_occupancy
  Li+  Li0  1  0.51695000  0.54591667  0.15495000  1.0
  Li+  Li1  1  0.51695000  0.04591667  0.15495000  1.0
  Li+  Li2  1  0.51695000  0.54591667  0.65495000  1.0
  Li+  Li3  1  0.51695000  0.04591667  0.65495000  1.0
  Li+  Li4  1  0.01695000  0.54591667  0.15495000  1.0
  Li+  Li5  1  0.01695000  0.04591667  0.15495000  1.0
  Li+  Li6  1  0.01695000  0.54591667  0.65495000  1.0
  Li+  Li7  1  0.01695000  0.04591667  0.65495000  1.0
  Li+  Li8  1  0.51695000  0.29591667  0.15495000  1.0
  Li+  Li9  1  0.51695000  0.79591667  0.15495000  1.0
  Li+  Li10  1  0.51695000  0.29591667  0.65495000  1.0
  Li+  Li11  1  0.51695000  0.79591667  0.65495000  1.0
  Li+  Li12  1  0.01695000  0.29591667  0.15495000  1.0
  Li+  Li13  1  0.01695000  0.79591667  0.15495000  1.0
  Li+  Li14  1  0.01695000  0.29591667  0.65495000  1.0
  Li+  Li15  1  0.01695000  0.79591667  0.65495000  1.0
  Li+  Li16  1  0.84505000  0.54591667  0.48305000  1.0
  Li+  Li17  1  0.84505000  0.04591667  0.48305000  1.0
  Li+  Li18  1  0.84505000  0.54591667  0.98305000  1.0
  Li+  Li19  1  0.84505000  0.04591667  0.98305000  1.0
  Li+  Li20  1  0.34505000  0.54591667  0.48305000  1.0
  Li+  Li21  1  0.34505000  0.04591667  0.48305000  1.0
  Li+  Li22  1  0.34505000  0.54591667  0.98305000  1.0
  Li+  Li23  1  0.34505000  0.04591667  0.98305000  1.0
  Li+  Li24  1  0.84505000  0.29591667  0.48305000  1.0
  Li+  Li25  1  0.84505000  0.79591667  0.48305000  1.0
  Li+  Li26  1  0.84505000  0.29591667  0.98305000  1.0
  Li+  Li27  1  0.84505000  0.79591667  0.98305000  1.0
  Li+  Li28  1  0.34505000  0.29591667  0.48305000  1.0
  Li+  Li29  1  0.34505000  0.79591667  0.48305000  1.0
  Li+  Li30  1  0.34505000  0.29591667  0.98305000  1.0
  Li+  Li31  1  0.34505000  0.79591667  0.98305000  1.0
  Li+  Li32  1  0.98305000  0.42091667  0.34505000  1.0
  Li+  Li33  1  0.98305000  0.92091667  0.34505000  1.0
  Li+  Li34  1  0.98305000  0.42091667  0.84505000  1.0
  Li+  Li35  1  0.98305000  0.92091667  0.84505000  1.0
  Li+  Li36  1  0.48305000  0.42091667  0.34505000  1.0
  Li+  Li37  1  0.48305000  0.92091667  0.34505000  1.0
  Li+  Li38  1  0.48305000  0.42091667  0.84505000  1.0
  Li+  Li39  1  0.48305000  0.92091667  0.84505000  1.0
  Li+  Li40  1  0.98305000  0.17091667  0.34505000  1.0
  Li+  Li41  1  0.98305000  0.67091667  0.34505000  1.0
  Li+  Li42  1  0.98305000  0.17091667  0.84505000  1.0
  Li+  Li43  1  0.98305000  0.67091667  0.84505000  1.0
  Li+  Li44  1  0.48305000  0.17091667  0.34505000  1.0
  Li+  Li45  1  0.48305000  0.67091667  0.34505000  1.0
  Li+  Li46  1  0.48305000  0.17091667  0.84505000  1.0
  Li+  Li47  1  0.48305000  0.67091667  0.84505000  1.0
  Li+  Li48  1  0.65495000  0.42091667  0.01695000  1.0
  Li+  Li49  1  0.65495000  0.92091667  0.01695000  1.0
  Li+  Li50  1  0.65495000  0.42091667  0.51695000  1.0
  Li+  Li51  1  0.65495000  0.92091667  0.51695000  1.0
  Li+  Li52  1  0.15495000  0.42091667  0.01695000  1.0
  Li+  Li53  1  0.15495000  0.92091667  0.01695000  1.0
  Li+  Li54  1  0.15495000  0.42091667  0.51695000  1.0
  Li+  Li55  1  0.15495000  0.92091667  0.51695000  1.0
  Li+  Li56  1  0.65495000  0.17091667  0.01695000  1.0
  Li+  Li57  1  0.65495000  0.67091667  0.01695000  1.0
  Li+  Li58  1  0.65495000  0.17091667  0.51695000  1.0
  Li+  Li59  1  0.65495000  0.67091667  0.51695000  1.0
  Li+  Li60  1  0.15495000  0.17091667  0.01695000  1.0
  Li+  Li61  1  0.15495000  0.67091667  0.01695000  1.0
  Li+  Li62  1  0.15495000  0.17091667  0.51695000  1.0
  Li+  Li63  1  0.15495000  0.67091667  0.51695000  1.0
  P5+  P64  1  0.67070000  0.54166667  0.32930000  1.0
  P5+  P65  1  0.67070000  0.04166667  0.32930000  1.0
  P5+  P66  1  0.67070000  0.54166667  0.82930000  1.0
  P5+  P67  1  0.67070000  0.04166667  0.82930000  1.0
  P5+  P68  1  0.17070000  0.54166667  0.32930000  1.0
  P5+  P69  1  0.17070000  0.04166667  0.32930000  1.0
  P5+  P70  1  0.17070000  0.54166667  0.82930000  1.0
  P5+  P71  1  0.17070000  0.04166667  0.82930000  1.0
  P5+  P72  1  0.67070000  0.29166667  0.32930000  1.0
  P5+  P73  1  0.67070000  0.79166667  0.32930000  1.0
  P5+  P74  1  0.67070000  0.29166667  0.82930000  1.0
  P5+  P75  1  0.67070000  0.79166667  0.82930000  1.0
  P5+  P76  1  0.17070000  0.29166667  0.32930000  1.0
  P5+  P77  1  0.17070000  0.79166667  0.32930000  1.0
  P5+  P78  1  0.17070000  0.29166667  0.82930000  1.0
  P5+  P79  1  0.17070000  0.79166667  0.82930000  1.0
  P5+  P80  1  0.82930000  0.66666667  0.17070000  1.0
  P5+  P81  1  0.82930000  0.16666667  0.17070000  1.0
  P5+  P82  1  0.82930000  0.66666667  0.67070000  1.0
  P5+  P83  1  0.82930000  0.16666667  0.67070000  1.0
  P5+  P84  1  0.32930000  0.66666667  0.17070000  1.0
  P5+  P85  1  0.32930000  0.16666667  0.17070000  1.0
  P5+  P86  1  0.32930000  0.66666667  0.67070000  1.0
  P5+  P87  1  0.32930000  0.16666667  0.67070000  1.0
  P5+  P88  1  0.82930000  0.41666667  0.17070000  1.0
  P5+  P89  1  0.82930000  0.91666667  0.17070000  1.0
  P5+  P90  1  0.82930000  0.41666667  0.67070000  1.0
  P5+  P91  1  0.82930000  0.91666667  0.67070000  1.0
  P5+  P92  1  0.32930000  0.41666667  0.17070000  1.0
  P5+  P93  1  0.32930000  0.91666667  0.17070000  1.0
  P5+  P94  1  0.32930000  0.41666667  0.67070000  1.0
  P5+  P95  1  0.32930000  0.91666667  0.67070000  1.0
  N3-  N96  1  0.81550000  0.57816667  0.18450000  1.0
  N3-  N97  1  0.81550000  0.07816667  0.18450000  1.0
  N3-  N98  1  0.81550000  0.57816667  0.68450000  1.0
  N3-  N99  1  0.81550000  0.07816667  0.68450000  1.0
  N3-  N100  1  0.31550000  0.57816667  0.18450000  1.0
  N3-  N101  1  0.31550000  0.07816667  0.18450000  1.0
  N3-  N102  1  0.31550000  0.57816667  0.68450000  1.0
  N3-  N103  1  0.31550000  0.07816667  0.68450000  1.0
  N3-  N104  1  0.81550000  0.32816667  0.18450000  1.0
  N3-  N105  1  0.81550000  0.82816667  0.18450000  1.0
  N3-  N106  1  0.81550000  0.32816667  0.68450000  1.0
  N3-  N107  1  0.81550000  0.82816667  0.68450000  1.0
  N3-  N108  1  0.31550000  0.32816667  0.18450000  1.0
  N3-  N109  1  0.31550000  0.82816667  0.18450000  1.0
  N3-  N110  1  0.31550000  0.32816667  0.68450000  1.0
  N3-  N111  1  0.31550000  0.82816667  0.68450000  1.0
  N3-  N112  1  0.68450000  0.45316667  0.31550000  1.0
  N3-  N113  1  0.68450000  0.95316667  0.31550000  1.0
  N3-  N114  1  0.68450000  0.45316667  0.81550000  1.0
  N3-  N115  1  0.68450000  0.95316667  0.81550000  1.0
  N3-  N116  1  0.18450000  0.45316667  0.31550000  1.0
  N3-  N117  1  0.18450000  0.95316667  0.31550000  1.0
  N3-  N118  1  0.18450000  0.45316667  0.81550000  1.0
  N3-  N119  1  0.18450000  0.95316667  0.81550000  1.0
  N3-  N120  1  0.68450000  0.20316667  0.31550000  1.0
  N3-  N121  1  0.68450000  0.70316667  0.31550000  1.0
  N3-  N122  1  0.68450000  0.20316667  0.81550000  1.0
  N3-  N123  1  0.68450000  0.70316667  0.81550000  1.0
  N3-  N124  1  0.18450000  0.20316667  0.31550000  1.0
  N3-  N125  1  0.18450000  0.70316667  0.31550000  1.0
  N3-  N126  1  0.18450000  0.20316667  0.81550000  1.0
  N3-  N127  1  0.18450000  0.70316667  0.81550000  1.0
  O2-  O128  1  0.66980000  0.56191667  0.47840000  1.0
  O2-  O129  1  0.66980000  0.06191667  0.47840000  1.0
  O2-  O130  1  0.66980000  0.56191667  0.97840000  1.0
  O2-  O131  1  0.66980000  0.06191667  0.97840000  1.0
  O2-  O132  1  0.16980000  0.56191667  0.47840000  1.0
  O2-  O133  1  0.16980000  0.06191667  0.47840000  1.0
  O2-  O134  1  0.16980000  0.56191667  0.97840000  1.0
  O2-  O135  1  0.16980000  0.06191667  0.97840000  1.0
  O2-  O136  1  0.66980000  0.31191667  0.47840000  1.0
  O2-  O137  1  0.66980000  0.81191667  0.47840000  1.0
  O2-  O138  1  0.66980000  0.31191667  0.97840000  1.0
  O2-  O139  1  0.66980000  0.81191667  0.97840000  1.0
  O2-  O140  1  0.16980000  0.31191667  0.47840000  1.0
  O2-  O141  1  0.16980000  0.81191667  0.47840000  1.0
  O2-  O142  1  0.16980000  0.31191667  0.97840000  1.0
  O2-  O143  1  0.16980000  0.81191667  0.97840000  1.0
  O2-  O144  1  0.52160000  0.56191667  0.33020000  1.0
  O2-  O145  1  0.52160000  0.06191667  0.33020000  1.0
  O2-  O146  1  0.52160000  0.56191667  0.83020000  1.0
  O2-  O147  1  0.52160000  0.06191667  0.83020000  1.0
  O2-  O148  1  0.02160000  0.56191667  0.33020000  1.0
  O2-  O149  1  0.02160000  0.06191667  0.33020000  1.0
  O2-  O150  1  0.02160000  0.56191667  0.83020000  1.0
  O2-  O151  1  0.02160000  0.06191667  0.83020000  1.0
  O2-  O152  1  0.52160000  0.31191667  0.33020000  1.0
  O2-  O153  1  0.52160000  0.81191667  0.33020000  1.0
  O2-  O154  1  0.52160000  0.31191667  0.83020000  1.0
  O2-  O155  1  0.52160000  0.81191667  0.83020000  1.0
  O2-  O156  1  0.02160000  0.31191667  0.33020000  1.0
  O2-  O157  1  0.02160000  0.81191667  0.33020000  1.0
  O2-  O158  1  0.02160000  0.31191667  0.83020000  1.0
  O2-  O159  1  0.02160000  0.81191667  0.83020000  1.0
  O2-  O160  1  0.83020000  0.43691667  0.02160000  1.0
  O2-  O161  1  0.83020000  0.93691667  0.02160000  1.0
  O2-  O162  1  0.83020000  0.43691667  0.52160000  1.0
  O2-  O163  1  0.83020000  0.93691667  0.52160000  1.0
  O2-  O164  1  0.33020000  0.43691667  0.02160000  1.0
  O2-  O165  1  0.33020000  0.93691667  0.02160000  1.0
  O2-  O166  1  0.33020000  0.43691667  0.52160000  1.0
  O2-  O167  1  0.33020000  0.93691667  0.52160000  1.0
  O2-  O168  1  0.83020000  0.18691667  0.02160000  1.0
  O2-  O169  1  0.83020000  0.68691667  0.02160000  1.0
  O2-  O170  1  0.83020000  0.18691667  0.52160000  1.0
  O2-  O171  1  0.83020000  0.68691667  0.52160000  1.0
  O2-  O172  1  0.33020000  0.18691667  0.02160000  1.0
  O2-  O173  1  0.33020000  0.68691667  0.02160000  1.0
  O2-  O174  1  0.33020000  0.18691667  0.52160000  1.0
  O2-  O175  1  0.33020000  0.68691667  0.52160000  1.0
  O2-  O176  1  0.97840000  0.43691667  0.16980000  1.0
  O2-  O177  1  0.97840000  0.93691667  0.16980000  1.0
  O2-  O178  1  0.97840000  0.43691667  0.66980000  1.0
  O2-  O179  1  0.97840000  0.93691667  0.66980000  1.0
  O2-  O180  1  0.47840000  0.43691667  0.16980000  1.0
  O2-  O181  1  0.47840000  0.93691667  0.16980000  1.0
  O2-  O182  1  0.47840000  0.43691667  0.66980000  1.0
  O2-  O183  1  0.47840000  0.93691667  0.66980000  1.0
  O2-  O184  1  0.97840000  0.18691667  0.16980000  1.0
  O2-  O185  1  0.97840000  0.68691667  0.16980000  1.0
  O2-  O186  1  0.97840000  0.18691667  0.66980000  1.0
  O2-  O187  1  0.97840000  0.68691667  0.66980000  1.0
  O2-  O188  1  0.47840000  0.18691667  0.16980000  1.0
  O2-  O189  1  0.47840000  0.68691667  0.16980000  1.0
  O2-  O190  1  0.47840000  0.18691667  0.66980000  1.0
  O2-  O191  1  0.47840000  0.68691667  0.66980000  1.0
