# generated using pymatgen
data_Li2PNO2
_symmetry_space_group_name_H-M   'P 1'
_cell_length_a   18.74240000
_cell_length_b   10.55506081
_cell_length_c   10.55506081
_cell_angle_alpha   118.45994557
_cell_angle_beta   90.00000000
_cell_angle_gamma   90.00000000
_symmetry_Int_Tables_number   1
_chemical_formula_structural   Li2PNO2
_chemical_formula_sum   'Li64 P32 N32 O64'
_cell_volume   1835.73460513
_cell_formula_units_Z   32
loop_
 _symmetry_equiv_pos_site_id
 _symmetry_equiv_pos_as_xyz
  1  'x, y, z'
loop_
 _atom_type_symbol
 _atom_type_oxidation_number
  Li+  1.0
  P5+  5.0
  N3-  -3.0
  O2-  -2.0
loop_
 _atom_site_type_symbol
 _atom_site_label
 _atom_site_symmetry_multiplicity
 _atom_site_fract_x
 _atom_site_fract_y
 _atom_site_fract_z
 _atom_site_occupancy
  Li+  Li1  1  0.12075000  0.48305000  0.15495000  1.0
  Li+  Li1  1  0.62075000  0.48305000  0.15495000  1.0
  Li+  Li1  1  0.12075000  0.48305000  0.65495000  1.0
  Li+  Li1  1  0.62075000  0.48305000  0.65495000  1.0
  Li+  Li1  1  0.12075000  0.98305000  0.15495000  1.0
  Li+  Li1  1  0.62075000  0.98305000  0.15495000  1.0
  Li+  Li1  1  0.12075000  0.98305000  0.65495000  1.0
  Li+  Li1  1  0.62075000  0.98305000  0.65495000  1.0
  Li+  Li1  1  0.37075000  0.48305000  0.15495000  1.0
  Li+  Li1  1  0.87075000  0.48305000  0.15495000  1.0
  Li+  Li1  1  0.37075000  0.48305000  0.65495000  1.0
  Li+  Li1  1  0.87075000  0.48305000  0.65495000  1.0
  Li+  Li1  1  0.37075000  0.98305000  0.15495000  1.0
  Li+  Li1  1  0.87075000  0.98305000  0.15495000  1.0
  Li+  Li1  1  0.37075000  0.98305000  0.65495000  1.0
  Li+  Li1  1  0.87075000  0.98305000  0.65495000  1.0
  Li+  Li1  1  0.12075000  0.15495000  0.48305000  1.0
  Li+  Li1  1  0.62075000  0.15495000  0.48305000  1.0
  Li+  Li1  1  0.12075000  0.15495000  0.98305000  1.0
  Li+  Li1  1  0.62075000  0.15495000  0.98305000  1.0
  Li+  Li1  1  0.12075000  0.65495000  0.48305000  1.0
  Li+  Li1  1  0.62075000  0.65495000  0.48305000  1.0
  Li+  Li1  1  0.12075000  0.65495000  0.98305000  1.0
  Li+  Li1  1  0.62075000  0.65495000  0.98305000  1.0
  Li+  Li1  1  0.37075000  0.15495000  0.48305000  1.0
  Li+  Li1  1  0.87075000  0.15495000  0.48305000  1.0
  Li+  Li1  1  0.37075000  0.15495000  0.98305000  1.0
  Li+  Li1  1  0.87075000  0.15495000  0.98305000  1.0
  Li+  Li1  1  0.37075000  0.65495000  0.48305000  1.0
  Li+  Li1  1  0.87075000  0.65495000  0.48305000  1.0
  Li+  Li1  1  0.37075000  0.65495000  0.98305000  1.0
  Li+  Li1  1  0.87075000  0.65495000  0.98305000  1.0
  Li+  Li1  1  0.24575000  0.01695000  0.34505000  1.0
  Li+  Li1  1  0.74575000  0.01695000  0.34505000  1.0
  Li+  Li1  1  0.24575000  0.01695000  0.84505000  1.0
  Li+  Li1  1  0.74575000  0.01695000  0.84505000  1.0
  Li+  Li1  1  0.24575000  0.51695000  0.34505000  1.0
  Li+  Li1  1  0.74575000  0.51695000  0.34505000  1.0
  Li+  Li1  1  0.24575000  0.51695000  0.84505000  1.0
  Li+  Li1  1  0.74575000  0.51695000  0.84505000  1.0
  Li+  Li1  1  0.49575000  0.01695000  0.34505000  1.0
  Li+  Li1  1  0.99575000  0.01695000  0.34505000  1.0
  Li+  Li1  1  0.49575000  0.01695000  0.84505000  1.0
  Li+  Li1  1  0.99575000  0.01695000  0.84505000  1.0
  Li+  Li1  1  0.49575000  0.51695000  0.34505000  1.0
  Li+  Li1  1  0.99575000  0.51695000  0.34505000  1.0
  Li+  Li1  1  0.49575000  0.51695000  0.84505000  1.0
  Li+  Li1  1  0.99575000  0.51695000  0.84505000  1.0
  Li+  Li1  1  0.24575000  0.34505000  0.01695000  1.0
  Li+  Li1  1  0.74575000  0.34505000  0.01695000  1.0
  Li+  Li1  1  0.24575000  0.34505000  0.51695000  1.0
  Li+  Li1  1  0.74575000  0.34505000  0.51695000  1.0
  Li+  Li1  1  0.24575000  0.84505000  0.01695000  1.0
  Li+  Li1  1  0.74575000  0.84505000  0.01695000  1.0
  Li+  Li1  1  0.24575000  0.84505000  0.51695000  1.0
  Li+  Li1  1  0.74575000  0.84505000  0.51695000  1.0
  Li+  Li1  1  0.49575000  0.34505000  0.01695000  1.0
  Li+  Li1  1  0.99575000  0.34505000  0.01695000  1.0
  Li+  Li1  1  0.49575000  0.34505000  0.51695000  1.0
  Li+  Li1  1  0.99575000  0.34505000  0.51695000  1.0
  Li+  Li1  1  0.49575000  0.84505000  0.01695000  1.0
  Li+  Li1  1  0.99575000  0.84505000  0.01695000  1.0
  Li+  Li1  1  0.49575000  0.84505000  0.51695000  1.0
  Li+  Li1  1  0.99575000  0.84505000  0.51695000  1.0
  P5+  P1  1  0.12500000  0.32930000  0.32930000  1.0
  P5+  P1  1  0.62500000  0.32930000  0.32930000  1.0
  P5+  P1  1  0.12500000  0.32930000  0.82930000  1.0
  P5+  P1  1  0.62500000  0.32930000  0.82930000  1.0
  P5+  P1  1  0.12500000  0.82930000  0.32930000  1.0
  P5+  P1  1  0.62500000  0.82930000  0.32930000  1.0
  P5+  P1  1  0.12500000  0.82930000  0.82930000  1.0
  P5+  P1  1  0.62500000  0.82930000  0.82930000  1.0
  P5+  P1  1  0.37500000  0.32930000  0.32930000  1.0
  P5+  P1  1  0.87500000  0.32930000  0.32930000  1.0
  P5+  P1  1  0.37500000  0.32930000  0.82930000  1.0
  P5+  P1  1  0.87500000  0.32930000  0.82930000  1.0
  P5+  P1  1  0.37500000  0.82930000  0.32930000  1.0
  P5+  P1  1  0.87500000  0.82930000  0.32930000  1.0
  P5+  P1  1  0.37500000  0.82930000  0.82930000  1.0
  P5+  P1  1  0.87500000  0.82930000  0.82930000  1.0
  P5+  P1  1  0.00000000  0.17070000  0.17070000  1.0
  P5+  P1  1  0.50000000  0.17070000  0.17070000  1.0
  P5+  P1  1  0.00000000  0.17070000  0.67070000  1.0
  P5+  P1  1  0.50000000  0.17070000  0.67070000  1.0
  P5+  P1  1  0.00000000  0.67070000  0.17070000  1.0
  P5+  P1  1  0.50000000  0.67070000  0.17070000  1.0
  P5+  P1  1  0.00000000  0.67070000  0.67070000  1.0
  P5+  P1  1  0.50000000  0.67070000  0.67070000  1.0
  P5+  P1  1  0.25000000  0.17070000  0.17070000  1.0
  P5+  P1  1  0.75000000  0.17070000  0.17070000  1.0
  P5+  P1  1  0.25000000  0.17070000  0.67070000  1.0
  P5+  P1  1  0.75000000  0.17070000  0.67070000  1.0
  P5+  P1  1  0.25000000  0.67070000  0.17070000  1.0
  P5+  P1  1  0.75000000  0.67070000  0.17070000  1.0
  P5+  P1  1  0.25000000  0.67070000  0.67070000  1.0
  P5+  P1  1  0.75000000  0.67070000  0.67070000  1.0
  N3-  N1  1  0.08850000  0.18450000  0.18450000  1.0
  N3-  N1  1  0.58850000  0.18450000  0.18450000  1.0
  N3-  N1  1  0.08850000  0.18450000  0.68450000  1.0
  N3-  N1  1  0.58850000  0.18450000  0.68450000  1.0
  N3-  N1  1  0.08850000  0.68450000  0.18450000  1.0
  N3-  N1  1  0.58850000  0.68450000  0.18450000  1.0
  N3-  N1  1  0.08850000  0.68450000  0.68450000  1.0
  N3-  N1  1  0.58850000  0.68450000  0.68450000  1.0
  N3-  N1  1  0.33850000  0.18450000  0.18450000  1.0
  N3-  N1  1  0.83850000  0.18450000  0.18450000  1.0
  N3-  N1  1  0.33850000  0.18450000  0.68450000  1.0
  N3-  N1  1  0.83850000  0.18450000  0.68450000  1.0
  N3-  N1  1  0.33850000  0.68450000  0.18450000  1.0
  N3-  N1  1  0.83850000  0.68450000  0.18450000  1.0
  N3-  N1  1  0.33850000  0.68450000  0.68450000  1.0
  N3-  N1  1  0.83850000  0.68450000  0.68450000  1.0
  N3-  N1  1  0.21350000  0.31550000  0.31550000  1.0
  N3-  N1  1  0.71350000  0.31550000  0.31550000  1.0
  N3-  N1  1  0.21350000  0.31550000  0.81550000  1.0
  N3-  N1  1  0.71350000  0.31550000  0.81550000  1.0
  N3-  N1  1  0.21350000  0.81550000  0.31550000  1.0
  N3-  N1  1  0.71350000  0.81550000  0.31550000  1.0
  N3-  N1  1  0.21350000  0.81550000  0.81550000  1.0
  N3-  N1  1  0.71350000  0.81550000  0.81550000  1.0
  N3-  N1  1  0.46350000  0.31550000  0.31550000  1.0
  N3-  N1  1  0.96350000  0.31550000  0.31550000  1.0
  N3-  N1  1  0.46350000  0.31550000  0.81550000  1.0
  N3-  N1  1  0.96350000  0.31550000  0.81550000  1.0
  N3-  N1  1  0.46350000  0.81550000  0.31550000  1.0
  N3-  N1  1  0.96350000  0.81550000  0.31550000  1.0
  N3-  N1  1  0.46350000  0.81550000  0.81550000  1.0
  N3-  N1  1  0.96350000  0.81550000  0.81550000  1.0
  O2-  O1  1  0.10475000  0.33020000  0.47840000  1.0
  O2-  O1  1  0.60475000  0.33020000  0.47840000  1.0
  O2-  O1  1  0.10475000  0.33020000  0.97840000  1.0
  O2-  O1  1  0.60475000  0.33020000  0.97840000  1.0
  O2-  O1  1  0.10475000  0.83020000  0.47840000  1.0
  O2-  O1  1  0.60475000  0.83020000  0.47840000  1.0
  O2-  O1  1  0.10475000  0.83020000  0.97840000  1.0
  O2-  O1  1  0.60475000  0.83020000  0.97840000  1.0
  O2-  O1  1  0.35475000  0.33020000  0.47840000  1.0
  O2-  O1  1  0.85475000  0.33020000  0.47840000  1.0
  O2-  O1  1  0.35475000  0.33020000  0.97840000  1.0
  O2-  O1  1  0.85475000  0.33020000  0.97840000  1.0
  O2-  O1  1  0.35475000  0.83020000  0.47840000  1.0
  O2-  O1  1  0.85475000  0.83020000  0.47840000  1.0
  O2-  O1  1  0.35475000  0.83020000  0.97840000  1.0
  O2-  O1  1  0.85475000  0.83020000  0.97840000  1.0
  O2-  O1  1  0.10475000  0.47840000  0.33020000  1.0
  O2-  O1  1  0.60475000  0.47840000  0.33020000  1.0
  O2-  O1  1  0.10475000  0.47840000  0.83020000  1.0
  O2-  O1  1  0.60475000  0.47840000  0.83020000  1.0
  O2-  O1  1  0.10475000  0.97840000  0.33020000  1.0
  O2-  O1  1  0.60475000  0.97840000  0.33020000  1.0
  O2-  O1  1  0.10475000  0.97840000  0.83020000  1.0
  O2-  O1  1  0.60475000  0.97840000  0.83020000  1.0
  O2-  O1  1  0.35475000  0.47840000  0.33020000  1.0
  O2-  O1  1  0.85475000  0.47840000  0.33020000  1.0
  O2-  O1  1  0.35475000  0.47840000  0.83020000  1.0
  O2-  O1  1  0.85475000  0.47840000  0.83020000  1.0
  O2-  O1  1  0.35475000  0.97840000  0.33020000  1.0
  O2-  O1  1  0.85475000  0.97840000  0.33020000  1.0
  O2-  O1  1  0.35475000  0.97840000  0.83020000  1.0
  O2-  O1  1  0.85475000  0.97840000  0.83020000  1.0
  O2-  O1  1  0.22975000  0.16980000  0.02160000  1.0
  O2-  O1  1  0.72975000  0.16980000  0.02160000  1.0
  O2-  O1  1  0.22975000  0.16980000  0.52160000  1.0
  O2-  O1  1  0.72975000  0.16980000  0.52160000  1.0
  O2-  O1  1  0.22975000  0.66980000  0.02160000  1.0
  O2-  O1  1  0.72975000  0.66980000  0.02160000  1.0
  O2-  O1  1  0.22975000  0.66980000  0.52160000  1.0
  O2-  O1  1  0.72975000  0.66980000  0.52160000  1.0
  O2-  O1  1  0.47975000  0.16980000  0.02160000  1.0
  O2-  O1  1  0.97975000  0.16980000  0.02160000  1.0
  O2-  O1  1  0.47975000  0.16980000  0.52160000  1.0
  O2-  O1  1  0.97975000  0.16980000  0.52160000  1.0
  O2-  O1  1  0.47975000  0.66980000  0.02160000  1.0
  O2-  O1  1  0.97975000  0.66980000  0.02160000  1.0
  O2-  O1  1  0.47975000  0.66980000  0.52160000  1.0
  O2-  O1  1  0.97975000  0.66980000  0.52160000  1.0
  O2-  O1  1  0.22975000  0.02160000  0.16980000  1.0
  O2-  O1  1  0.72975000  0.02160000  0.16980000  1.0
  O2-  O1  1  0.22975000  0.02160000  0.66980000  1.0
  O2-  O1  1  0.72975000  0.02160000  0.66980000  1.0
  O2-  O1  1  0.22975000  0.52160000  0.16980000  1.0
  O2-  O1  1  0.72975000  0.52160000  0.16980000  1.0
  O2-  O1  1  0.22975000  0.52160000  0.66980000  1.0
  O2-  O1  1  0.72975000  0.52160000  0.66980000  1.0
  O2-  O1  1  0.47975000  0.02160000  0.16980000  1.0
  O2-  O1  1  0.97975000  0.02160000  0.16980000  1.0
  O2-  O1  1  0.47975000  0.02160000  0.66980000  1.0
  O2-  O1  1  0.97975000  0.02160000  0.66980000  1.0
  O2-  O1  1  0.47975000  0.52160000  0.16980000  1.0
  O2-  O1  1  0.97975000  0.52160000  0.16980000  1.0
  O2-  O1  1  0.47975000  0.52160000  0.66980000  1.0
  O2-  O1  1  0.97975000  0.52160000  0.66980000  1.0
