# generated using pymatgen
data_Li2Ti3CoO8
_symmetry_space_group_name_H-M   'P 1'
_cell_length_a   8.37660000
_cell_length_b   8.37660000
_cell_length_c   16.75320000
_cell_angle_alpha   90.00000000
_cell_angle_beta   90.00000000
_cell_angle_gamma   90.00000000
_symmetry_Int_Tables_number   1
_chemical_formula_structural   Li2Ti3CoO8
_chemical_formula_sum   'Li16 Ti24 Co8 O64'
_cell_volume   1175.52894740
_cell_formula_units_Z   8
loop_
 _symmetry_equiv_pos_site_id
 _symmetry_equiv_pos_as_xyz
  1  'x, y, z'
loop_
 _atom_type_symbol
 _atom_type_oxidation_number
  Li+  1.0
  Ti4+  4.0
  Co4+  4.0
  O2-  -2.0
loop_
 _atom_site_type_symbol
 _atom_site_label
 _atom_site_symmetry_multiplicity
 _atom_site_fract_x
 _atom_site_fract_y
 _atom_site_fract_z
 _atom_site_occupancy
  Li+  Li0  1  0.87500000  0.37500000  0.06250000  1.0
  Li+  Li1  1  0.87500000  0.37500000  0.56250000  1.0
  Li+  Li2  1  0.12500000  0.87500000  0.68750000  1.0
  Li+  Li3  1  0.37500000  0.12500000  0.43750000  1.0
  Li+  Li4  1  0.37500000  0.12500000  0.93750000  1.0
  Li+  Li5  1  0.62500000  0.62500000  0.31250000  1.0
  Li+  Li6  1  0.62500000  0.62500000  0.81250000  1.0
  Li+  Li7  1  0.25100000  0.75100000  0.37450000  1.0
  Li+  Li8  1  0.75100000  0.74900000  0.12550000  1.0
  Li+  Li9  1  0.24900000  0.24900000  0.12450000  1.0
  Li+  Li10  1  0.49900000  0.99900000  0.25050000  1.0
  Li+  Li11  1  0.49900000  0.99900000  0.75050000  1.0
  Li+  Li12  1  0.99900000  0.50100000  0.74950000  1.0
  Li+  Li13  1  0.50100000  0.49900000  0.49950000  1.0
  Li+  Li14  1  0.00100000  0.00100000  0.00050000  1.0
  Li+  Li15  1  0.00100000  0.00100000  0.50050000  1.0
  Ti4+  Ti1  1  0.13200000  0.11800000  0.31250000  1.0
  Ti4+  Ti1  1  0.13200000  0.11800000  0.81250000  1.0
  Ti4+  Ti1  1  0.86800000  0.61800000  0.43750000  1.0
  Ti4+  Ti1  1  0.86800000  0.61800000  0.93750000  1.0
  Ti4+  Ti1  1  0.61800000  0.87500000  0.43400000  1.0
  Ti4+  Ti1  1  0.61800000  0.87500000  0.93400000  1.0
  Ti4+  Ti1  1  0.38200000  0.37500000  0.31600000  1.0
  Ti4+  Ti1  1  0.38200000  0.37500000  0.81600000  1.0
  Ti4+  Ti1  1  0.37500000  0.63200000  0.19100000  1.0
  Ti4+  Ti1  1  0.37500000  0.63200000  0.69100000  1.0
  Ti4+  Ti1  1  0.62500000  0.13200000  0.05900000  1.0
  Ti4+  Ti1  1  0.62500000  0.13200000  0.55900000  1.0
  Ti4+  Ti1  1  0.63200000  0.38200000  0.18750000  1.0
  Ti4+  Ti1  1  0.63200000  0.38200000  0.68750000  1.0
  Ti4+  Ti1  1  0.36800000  0.88200000  0.06250000  1.0
  Ti4+  Ti1  1  0.36800000  0.88200000  0.56250000  1.0
  Ti4+  Ti1  1  0.11800000  0.62500000  0.06600000  1.0
  Ti4+  Ti1  1  0.11800000  0.62500000  0.56600000  1.0
  Ti4+  Ti1  1  0.88200000  0.12500000  0.18400000  1.0
  Ti4+  Ti1  1  0.88200000  0.12500000  0.68400000  1.0
  Ti4+  Ti1  1  0.87500000  0.86800000  0.30900000  1.0
  Ti4+  Ti1  1  0.87500000  0.86800000  0.80900000  1.0
  Ti4+  Ti1  1  0.12500000  0.36800000  0.44100000  1.0
  Ti4+  Ti1  1  0.12500000  0.36800000  0.94100000  1.0
  Co4+  Co40  1  0.12500000  0.87500000  0.18750000  1.0
  Co4+  Co41  1  0.25100000  0.75100000  0.87450000  1.0
  Co4+  Co42  1  0.74900000  0.25100000  0.37550000  1.0
  Co4+  Co43  1  0.74900000  0.25100000  0.87550000  1.0
  Co4+  Co44  1  0.75100000  0.74900000  0.62550000  1.0
  Co4+  Co45  1  0.24900000  0.24900000  0.62450000  1.0
  Co4+  Co46  1  0.99900000  0.50100000  0.24950000  1.0
  Co4+  Co47  1  0.50100000  0.49900000  0.99950000  1.0
  O2-  O1  1  0.62500000  0.12500000  0.18750000  1.0
  O2-  O1  1  0.62500000  0.12500000  0.68750000  1.0
  O2-  O1  1  0.37500000  0.62500000  0.06250000  1.0
  O2-  O1  1  0.37500000  0.62500000  0.56250000  1.0
  O2-  O1  1  0.12500000  0.37500000  0.31250000  1.0
  O2-  O1  1  0.12500000  0.37500000  0.81250000  1.0
  O2-  O1  1  0.87500000  0.87500000  0.43750000  1.0
  O2-  O1  1  0.87500000  0.87500000  0.93750000  1.0
  O2-  O1  1  0.12500000  0.62500000  0.43750000  1.0
  O2-  O1  1  0.12500000  0.62500000  0.93750000  1.0
  O2-  O1  1  0.62500000  0.87500000  0.06250000  1.0
  O2-  O1  1  0.62500000  0.87500000  0.56250000  1.0
  O2-  O1  1  0.87500000  0.12500000  0.31250000  1.0
  O2-  O1  1  0.87500000  0.12500000  0.81250000  1.0
  O2-  O1  1  0.37500000  0.37500000  0.18750000  1.0
  O2-  O1  1  0.37500000  0.37500000  0.68750000  1.0
  O2-  O2  1  0.63700000  0.87700000  0.32500000  1.0
  O2-  O2  1  0.63700000  0.87700000  0.82500000  1.0
  O2-  O2  1  0.36300000  0.37700000  0.42500000  1.0
  O2-  O2  1  0.36300000  0.37700000  0.92500000  1.0
  O2-  O2  1  0.37700000  0.85000000  0.18150000  1.0
  O2-  O2  1  0.37700000  0.85000000  0.68150000  1.0
  O2-  O2  1  0.62300000  0.35000000  0.06850000  1.0
  O2-  O2  1  0.62300000  0.35000000  0.56850000  1.0
  O2-  O2  1  0.35000000  0.13700000  0.31150000  1.0
  O2-  O2  1  0.35000000  0.13700000  0.81150000  1.0
  O2-  O2  1  0.65000000  0.63700000  0.43850000  1.0
  O2-  O2  1  0.65000000  0.63700000  0.93850000  1.0
  O2-  O2  1  0.13700000  0.62300000  0.17500000  1.0
  O2-  O2  1  0.13700000  0.62300000  0.67500000  1.0
  O2-  O2  1  0.86300000  0.12300000  0.07500000  1.0
  O2-  O2  1  0.86300000  0.12300000  0.57500000  1.0
  O2-  O2  1  0.87700000  0.65000000  0.31850000  1.0
  O2-  O2  1  0.87700000  0.65000000  0.81850000  1.0
  O2-  O2  1  0.12300000  0.15000000  0.43150000  1.0
  O2-  O2  1  0.12300000  0.15000000  0.93150000  1.0
  O2-  O2  1  0.85000000  0.36300000  0.18850000  1.0
  O2-  O2  1  0.85000000  0.36300000  0.68850000  1.0
  O2-  O2  1  0.15000000  0.86300000  0.06150000  1.0
  O2-  O2  1  0.15000000  0.86300000  0.56150000  1.0
  O2-  O2  1  0.37300000  0.61300000  0.30000000  1.0
  O2-  O2  1  0.37300000  0.61300000  0.80000000  1.0
  O2-  O2  1  0.87300000  0.88700000  0.20000000  1.0
  O2-  O2  1  0.87300000  0.88700000  0.70000000  1.0
  O2-  O2  1  0.62700000  0.11300000  0.45000000  1.0
  O2-  O2  1  0.62700000  0.11300000  0.95000000  1.0
  O2-  O2  1  0.12700000  0.38700000  0.05000000  1.0
  O2-  O2  1  0.12700000  0.38700000  0.55000000  1.0
  O2-  O2  1  0.88700000  0.40000000  0.43650000  1.0
  O2-  O2  1  0.88700000  0.40000000  0.93650000  1.0
  O2-  O2  1  0.11300000  0.90000000  0.31350000  1.0
  O2-  O2  1  0.11300000  0.90000000  0.81350000  1.0
  O2-  O2  1  0.61300000  0.60000000  0.18650000  1.0
  O2-  O2  1  0.61300000  0.60000000  0.68650000  1.0
  O2-  O2  1  0.38700000  0.10000000  0.06350000  1.0
  O2-  O2  1  0.38700000  0.10000000  0.56350000  1.0
  O2-  O2  1  0.40000000  0.87300000  0.44350000  1.0
  O2-  O2  1  0.40000000  0.87300000  0.94350000  1.0
  O2-  O2  1  0.90000000  0.62700000  0.05650000  1.0
  O2-  O2  1  0.90000000  0.62700000  0.55650000  1.0
  O2-  O2  1  0.60000000  0.37300000  0.30650000  1.0
  O2-  O2  1  0.60000000  0.37300000  0.80650000  1.0
  O2-  O2  1  0.10000000  0.12700000  0.19350000  1.0
  O2-  O2  1  0.10000000  0.12700000  0.69350000  1.0
