# generated using pymatgen
data_LiBH4
_symmetry_space_group_name_H-M   'P 1'
_cell_length_a   8.79560000
_cell_length_b   14.26000000
_cell_length_c   13.61200000
_cell_angle_alpha   90.00000000
_cell_angle_beta   90.00000000
_cell_angle_gamma   90.00000000
_symmetry_Int_Tables_number   1
_chemical_formula_structural   LiBH4
_chemical_formula_sum   'Li32 B32 H128'
_cell_volume   1707.28858467
_cell_formula_units_Z   32
loop_
 _symmetry_equiv_pos_site_id
 _symmetry_equiv_pos_as_xyz
  1  'x, y, z'
loop_
 _atom_type_symbol
 _atom_type_oxidation_number
  Li+  1.0
  B3+  3.0
  H-  -1.0
loop_
 _atom_site_type_symbol
 _atom_site_label
 _atom_site_symmetry_multiplicity
 _atom_site_fract_x
 _atom_site_fract_y
 _atom_site_fract_z
 _atom_site_occupancy
  Li+  Li0  1  0.12500000  0.67160000  0.55075000  1.0
  Li+  Li1  1  0.12500000  0.17160000  0.55075000  1.0
  Li+  Li2  1  0.12500000  0.67160000  0.05075000  1.0
  Li+  Li3  1  0.12273118  0.17445378  0.04990061  1.0
  Li+  Li4  1  0.62500000  0.67160000  0.55075000  1.0
  Li+  Li5  1  0.62500000  0.17160000  0.55075000  1.0
  Li+  Li6  1  0.62500000  0.67160000  0.05075000  1.0
  Li+  Li7  1  0.62500000  0.17160000  0.05075000  1.0
  Li+  Li8  1  0.12500000  0.92160000  0.69925000  1.0
  Li+  Li9  1  0.12500000  0.42160000  0.69925000  1.0
  Li+  Li10  1  0.12500000  0.92160000  0.19925000  1.0
  Li+  Li11  1  0.12500000  0.42160000  0.19925000  1.0
  Li+  Li12  1  0.62500000  0.92160000  0.69925000  1.0
  Li+  Li13  1  0.62462279  0.42417714  0.69777628  1.0
  Li+  Li14  1  0.62995750  0.92005734  0.19874093  1.0
  Li+  Li15  1  0.62500000  0.42160000  0.19925000  1.0
  Li+  Li16  1  0.37500000  0.82840000  0.44925000  1.0
  Li+  Li17  1  0.37500000  0.32840000  0.44925000  1.0
  Li+  Li18  1  0.37500000  0.82840000  0.94925000  1.0
  Li+  Li19  1  0.37500000  0.32840000  0.94925000  1.0
  Li+  Li20  1  0.87500000  0.82840000  0.44925000  1.0
  Li+  Li21  1  0.87500000  0.32840000  0.44925000  1.0
  Li+  Li22  1  0.87500000  0.82840000  0.94925000  1.0
  Li+  Li23  1  0.87500000  0.32840000  0.94925000  1.0
  Li+  Li24  1  0.37199018  0.57847683  0.30015760  1.0
  Li+  Li25  1  0.37500000  0.07840000  0.30075000  1.0
  Li+  Li26  1  0.37500000  0.57840000  0.80075000  1.0
  Li+  Li27  1  0.37500000  0.07840000  0.80075000  1.0
  Li+  Li28  1  0.87500000  0.57840000  0.30075000  1.0
  Li+  Li29  1  0.87500000  0.07840000  0.30075000  1.0
  Li+  Li30  1  0.87200495  0.57914261  0.80362056  1.0
  Li+  Li31  1  0.87500000  0.07840000  0.80075000  1.0
  B3+  B32  1  0.12500000  0.59800000  0.71525000  1.0
  B3+  B33  1  0.12500000  0.09800000  0.71525000  1.0
  B3+  B34  1  0.12500000  0.59800000  0.21525000  1.0
  B3+  B35  1  0.12523820  0.10029314  0.21578806  1.0
  B3+  B36  1  0.62500000  0.59800000  0.71525000  1.0
  B3+  B37  1  0.62500000  0.09800000  0.71525000  1.0
  B3+  B38  1  0.62500000  0.59800000  0.21525000  1.0
  B3+  B39  1  0.62606861  0.09905506  0.21936767  1.0
  B3+  B40  1  0.12714577  0.84748952  0.53231566  1.0
  B3+  B41  1  0.12500000  0.34800000  0.53475000  1.0
  B3+  B42  1  0.12035452  0.85208738  0.03716418  1.0
  B3+  B43  1  0.12500000  0.34800000  0.03475000  1.0
  B3+  B44  1  0.62484350  0.84560088  0.53222615  1.0
  B3+  B45  1  0.62264473  0.34722264  0.53570489  1.0
  B3+  B46  1  0.62500000  0.84800000  0.03475000  1.0
  B3+  B47  1  0.62500000  0.34800000  0.03475000  1.0
  B3+  B48  1  0.37500000  0.90200000  0.28475000  1.0
  B3+  B49  1  0.37636371  0.40200887  0.28251100  1.0
  B3+  B50  1  0.37500000  0.90200000  0.78475000  1.0
  B3+  B51  1  0.37500000  0.40200000  0.78475000  1.0
  B3+  B52  1  0.87500000  0.90200000  0.28475000  1.0
  B3+  B53  1  0.87708172  0.40227498  0.28463829  1.0
  B3+  B54  1  0.87500000  0.90200000  0.78475000  1.0
  B3+  B55  1  0.87500000  0.40200000  0.78475000  1.0
  B3+  B56  1  0.37500000  0.65200000  0.46525000  1.0
  B3+  B57  1  0.37500000  0.15200000  0.46525000  1.0
  B3+  B58  1  0.37673093  0.65219142  0.96609367  1.0
  B3+  B59  1  0.37399288  0.14925422  0.95985724  1.0
  B3+  B60  1  0.87500000  0.65200000  0.46525000  1.0
  B3+  B61  1  0.87500000  0.15200000  0.46525000  1.0
  B3+  B62  1  0.87012046  0.65292003  0.96216405  1.0
  B3+  B63  1  0.87500000  0.15200000  0.96525000  1.0
  H-  H64  1  0.12500000  0.80000000  0.47800000  1.0
  H-  H65  1  0.12500000  0.30000000  0.47800000  1.0
  H-  H66  1  0.12500000  0.80000000  0.97800000  1.0
  H-  H67  1  0.12500000  0.30000000  0.97800000  1.0
  H-  H68  1  0.62500000  0.80000000  0.47800000  1.0
  H-  H69  1  0.62500000  0.30000000  0.47800000  1.0
  H-  H70  1  0.62500000  0.80000000  0.97800000  1.0
  H-  H71  1  0.62500000  0.30000000  0.97800000  1.0
  H-  H72  1  0.12500000  0.55000000  0.27200000  1.0
  H-  H73  1  0.12500000  0.05000000  0.27200000  1.0
  H-  H74  1  0.12500000  0.55000000  0.77200000  1.0
  H-  H75  1  0.12500000  0.05000000  0.77200000  1.0
  H-  H76  1  0.62510927  0.55280109  0.27208173  1.0
  H-  H77  1  0.62128268  0.04802519  0.27444576  1.0
  H-  H78  1  0.62500000  0.55000000  0.77200000  1.0
  H-  H79  1  0.62500000  0.05000000  0.77200000  1.0
  H-  H80  1  0.37500000  0.70000000  0.52200000  1.0
  H-  H81  1  0.37500000  0.20000000  0.52200000  1.0
  H-  H82  1  0.37500000  0.70000000  0.02200000  1.0
  H-  H83  1  0.37500000  0.20000000  0.02200000  1.0
  H-  H84  1  0.87167294  0.70074933  0.52087010  1.0
  H-  H85  1  0.87500000  0.20000000  0.52200000  1.0
  H-  H86  1  0.87500000  0.70000000  0.02200000  1.0
  H-  H87  1  0.87432166  0.20294583  0.02037056  1.0
  H-  H88  1  0.37500000  0.95000000  0.72800000  1.0
  H-  H89  1  0.37514457  0.44984160  0.72658365  1.0
  H-  H90  1  0.37390390  0.95024531  0.22674045  1.0
  H-  H91  1  0.37500000  0.45000000  0.22800000  1.0
  H-  H92  1  0.87478347  0.94971216  0.72530562  1.0
  H-  H93  1  0.87500000  0.45000000  0.72800000  1.0
  H-  H94  1  0.87500000  0.95000000  0.22800000  1.0
  H-  H95  1  0.87500000  0.45000000  0.22800000  1.0
  H-  H96  1  0.12500000  0.54800000  0.64000000  1.0
  H-  H97  1  0.12567782  0.04860422  0.63729605  1.0
  H-  H98  1  0.12500000  0.54800000  0.14000000  1.0
  H-  H99  1  0.12244377  0.05454995  0.14168928  1.0
  H-  H100  1  0.62500000  0.54800000  0.64000000  1.0
  H-  H101  1  0.62500000  0.04800000  0.64000000  1.0
  H-  H102  1  0.62500000  0.54800000  0.14000000  1.0
  H-  H103  1  0.62294738  0.05057948  0.13446101  1.0
  H-  H104  1  0.12500000  0.79800000  0.61000000  1.0
  H-  H105  1  0.12500000  0.29800000  0.61000000  1.0
  H-  H106  1  0.12500000  0.79800000  0.11000000  1.0
  H-  H107  1  0.12500000  0.29800000  0.11000000  1.0
  H-  H108  1  0.62382707  0.79769884  0.61033622  1.0
  H-  H109  1  0.62500000  0.29800000  0.61000000  1.0
  H-  H110  1  0.62500000  0.79800000  0.11000000  1.0
  H-  H111  1  0.62500000  0.29800000  0.11000000  1.0
  H-  H112  1  0.37617418  0.94824202  0.35795794  1.0
  H-  H113  1  0.37500000  0.45200000  0.36000000  1.0
  H-  H114  1  0.37500000  0.95200000  0.86000000  1.0
  H-  H115  1  0.37500000  0.45200000  0.86000000  1.0
  H-  H116  1  0.87659779  0.94893088  0.35952249  1.0
  H-  H117  1  0.87604776  0.45206448  0.35822590  1.0
  H-  H118  1  0.87500000  0.95200000  0.86000000  1.0
  H-  H119  1  0.87545710  0.45699171  0.86070446  1.0
  H-  H120  1  0.37500000  0.70200000  0.39000000  1.0
  H-  H121  1  0.37674592  0.20175205  0.38951008  1.0
  H-  H122  1  0.37794508  0.70347189  0.88905106  1.0
  H-  H123  1  0.37500000  0.20200000  0.89000000  1.0
  H-  H124  1  0.87500000  0.70200000  0.39000000  1.0
  H-  H125  1  0.87084578  0.19885335  0.39096603  1.0
  H-  H126  1  0.87500000  0.70200000  0.89000000  1.0
  H-  H127  1  0.87500000  0.20200000  0.89000000  1.0
  H-  H128  1  0.02700000  0.66400000  0.71400000  1.0
  H-  H129  1  0.02700000  0.16400000  0.71400000  1.0
  H-  H130  1  0.02700000  0.66400000  0.21400000  1.0
  H-  H131  1  0.02700000  0.16400000  0.21400000  1.0
  H-  H132  1  0.52700000  0.66400000  0.71400000  1.0
  H-  H133  1  0.52700000  0.16400000  0.71400000  1.0
  H-  H134  1  0.52700000  0.66400000  0.21400000  1.0
  H-  H135  1  0.52555343  0.16740798  0.21275446  1.0
  H-  H136  1  0.22300000  0.91400000  0.53600000  1.0
  H-  H137  1  0.22300000  0.41400000  0.53600000  1.0
  H-  H138  1  0.22629244  0.91288931  0.03520049  1.0
  H-  H139  1  0.22458413  0.41302278  0.03639008  1.0
  H-  H140  1  0.72300000  0.91400000  0.53600000  1.0
  H-  H141  1  0.72300000  0.41400000  0.53600000  1.0
  H-  H142  1  0.72300000  0.91400000  0.03600000  1.0
  H-  H143  1  0.72300000  0.41400000  0.03600000  1.0
  H-  H144  1  0.27700000  0.83600000  0.28600000  1.0
  H-  H145  1  0.27700000  0.33600000  0.28600000  1.0
  H-  H146  1  0.27871106  0.83464462  0.78827846  1.0
  H-  H147  1  0.27700000  0.33600000  0.78600000  1.0
  H-  H148  1  0.77676551  0.83518847  0.28621342  1.0
  H-  H149  1  0.77700000  0.33600000  0.28600000  1.0
  H-  H150  1  0.77700000  0.83600000  0.78600000  1.0
  H-  H151  1  0.77700000  0.33600000  0.78600000  1.0
  H-  H152  1  0.47239652  0.58360725  0.46328709  1.0
  H-  H153  1  0.47300000  0.08600000  0.46400000  1.0
  H-  H154  1  0.47300000  0.58600000  0.96400000  1.0
  H-  H155  1  0.47300000  0.08600000  0.96400000  1.0
  H-  H156  1  0.97300000  0.58600000  0.46400000  1.0
  H-  H157  1  0.97300000  0.08600000  0.46400000  1.0
  H-  H158  1  0.97300000  0.58600000  0.96400000  1.0
  H-  H159  1  0.97300000  0.08600000  0.96400000  1.0
  H-  H160  1  0.47300000  0.83600000  0.28600000  1.0
  H-  H161  1  0.47300000  0.33600000  0.28600000  1.0
  H-  H162  1  0.47300000  0.83600000  0.78600000  1.0
  H-  H163  1  0.47300000  0.33600000  0.78600000  1.0
  H-  H164  1  0.97300000  0.83600000  0.28600000  1.0
  H-  H165  1  0.97272083  0.34017180  0.28525712  1.0
  H-  H166  1  0.97300000  0.83600000  0.78600000  1.0
  H-  H167  1  0.97372720  0.33380683  0.78750440  1.0
  H-  H168  1  0.27700000  0.58600000  0.46400000  1.0
  H-  H169  1  0.27700000  0.08600000  0.46400000  1.0
  H-  H170  1  0.27946134  0.58414896  0.96053175  1.0
  H-  H171  1  0.27700000  0.08600000  0.96400000  1.0
  H-  H172  1  0.77985593  0.58462344  0.46594567  1.0
  H-  H173  1  0.77700000  0.08600000  0.46400000  1.0
  H-  H174  1  0.77211952  0.58893830  0.96147759  1.0
  H-  H175  1  0.77700000  0.08600000  0.96400000  1.0
  H-  H176  1  0.22300000  0.66400000  0.71400000  1.0
  H-  H177  1  0.22431206  0.16562821  0.71268115  1.0
  H-  H178  1  0.22300000  0.66400000  0.21400000  1.0
  H-  H179  1  0.22300000  0.16400000  0.21400000  1.0
  H-  H180  1  0.72300000  0.66400000  0.71400000  1.0
  H-  H181  1  0.72300000  0.16400000  0.71400000  1.0
  H-  H182  1  0.72300000  0.66400000  0.21400000  1.0
  H-  H183  1  0.72300000  0.16400000  0.21400000  1.0
  H-  H184  1  0.02713022  0.91420628  0.53773093  1.0
  H-  H185  1  0.02700000  0.41400000  0.53600000  1.0
  H-  H186  1  0.02700000  0.91400000  0.03600000  1.0
  H-  H187  1  0.02700000  0.41400000  0.03600000  1.0
  H-  H188  1  0.52700000  0.91400000  0.53600000  1.0
  H-  H189  1  0.52700000  0.41400000  0.53600000  1.0
  H-  H190  1  0.53313077  0.91114770  0.03375302  1.0
  H-  H191  1  0.52700000  0.41400000  0.03600000  1.0
