# generated using pymatgen
data_LiBH4
_symmetry_space_group_name_H-M   'P 1'
_cell_length_a   13.71149142
_cell_length_b   8.85988789
_cell_length_c   14.36422771
_cell_angle_alpha   90.00000000
_cell_angle_beta   90.00000000
_cell_angle_gamma   90.00000000
_symmetry_Int_Tables_number   1
_chemical_formula_structural   LiBH4
_chemical_formula_sum   'Li32 B32 H128'
_cell_volume   1744.99908648
_cell_formula_units_Z   32
loop_
 _symmetry_equiv_pos_site_id
 _symmetry_equiv_pos_as_xyz
  1  'x, y, z'
loop_
 _atom_type_symbol
 _atom_type_oxidation_number
  Li+  1.0
  B3+  3.0
  H-  -1.0
loop_
 _atom_site_type_symbol
 _atom_site_label
 _atom_site_symmetry_multiplicity
 _atom_site_fract_x
 _atom_site_fract_y
 _atom_site_fract_z
 _atom_site_occupancy
  Li+  Li0  1  0.80075000  0.54166667  0.32840000  1.0
  Li+  Li1  1  0.80075000  0.54166667  0.82840000  1.0
  Li+  Li2  1  0.30075000  0.54166667  0.32840000  1.0
  Li+  Li3  1  0.30075000  0.54166667  0.82840000  1.0
  Li+  Li4  1  0.80075000  0.04166667  0.32840000  1.0
  Li+  Li5  1  0.80075000  0.04166667  0.82840000  1.0
  Li+  Li6  1  0.30075000  0.04166667  0.32840000  1.0
  Li+  Li7  1  0.30075000  0.04166667  0.82840000  1.0
  Li+  Li8  1  0.94925000  0.54166667  0.07840000  1.0
  Li+  Li9  1  0.94925000  0.54166667  0.57840000  1.0
  Li+  Li10  1  0.44925000  0.54166667  0.07840000  1.0
  Li+  Li11  1  0.44925000  0.54166667  0.57840000  1.0
  Li+  Li12  1  0.94925000  0.04166667  0.07840000  1.0
  Li+  Li13  1  0.94925000  0.04166667  0.57840000  1.0
  Li+  Li14  1  0.44925000  0.04166667  0.07840000  1.0
  Li+  Li15  1  0.44925000  0.04166667  0.57840000  1.0
  Li+  Li16  1  0.69925000  0.29166667  0.17160000  1.0
  Li+  Li17  1  0.69925000  0.29166667  0.67160000  1.0
  Li+  Li18  1  0.19925000  0.29166667  0.17160000  1.0
  Li+  Li19  1  0.19925000  0.29166667  0.67160000  1.0
  Li+  Li20  1  0.69925000  0.79166667  0.17160000  1.0
  Li+  Li21  1  0.69925000  0.79166667  0.67160000  1.0
  Li+  Li22  1  0.19925000  0.79166667  0.17160000  1.0
  Li+  Li23  1  0.19925000  0.79166667  0.67160000  1.0
  Li+  Li24  1  0.55075000  0.29166667  0.42160000  1.0
  Li+  Li25  1  0.55075000  0.29166667  0.92160000  1.0
  Li+  Li26  1  0.05075000  0.29166667  0.42160000  1.0
  Li+  Li27  1  0.05075000  0.29166667  0.92160000  1.0
  Li+  Li28  1  0.55075000  0.79166667  0.42160000  1.0
  Li+  Li29  1  0.55075000  0.79166667  0.92160000  1.0
  Li+  Li30  1  0.05075000  0.79166667  0.42160000  1.0
  Li+  Li31  1  0.05075000  0.79166667  0.92160000  1.0
  B3+  B32  1  0.96525000  0.54166667  0.40200000  1.0
  B3+  B33  1  0.96525000  0.54166667  0.90200000  1.0
  B3+  B34  1  0.46525000  0.54166667  0.40200000  1.0
  B3+  B35  1  0.46525000  0.54166667  0.90200000  1.0
  B3+  B36  1  0.96525000  0.04166667  0.40200000  1.0
  B3+  B37  1  0.96525000  0.04166667  0.90200000  1.0
  B3+  B38  1  0.46525000  0.04166667  0.40200000  1.0
  B3+  B39  1  0.46525000  0.04166667  0.90200000  1.0
  B3+  B40  1  0.78475000  0.54166667  0.15200000  1.0
  B3+  B41  1  0.78475000  0.54166667  0.65200000  1.0
  B3+  B42  1  0.28475000  0.54166667  0.15200000  1.0
  B3+  B43  1  0.28475000  0.54166667  0.65200000  1.0
  B3+  B44  1  0.78475000  0.04166667  0.15200000  1.0
  B3+  B45  1  0.78475000  0.04166667  0.65200000  1.0
  B3+  B46  1  0.28475000  0.04166667  0.15200000  1.0
  B3+  B47  1  0.28475000  0.04166667  0.65200000  1.0
  B3+  B48  1  0.53475000  0.29166667  0.09800000  1.0
  B3+  B49  1  0.53475000  0.29166667  0.59800000  1.0
  B3+  B50  1  0.03475000  0.29166667  0.09800000  1.0
  B3+  B51  1  0.03475000  0.29166667  0.59800000  1.0
  B3+  B52  1  0.53475000  0.79166667  0.09800000  1.0
  B3+  B53  1  0.53475000  0.79166667  0.59800000  1.0
  B3+  B54  1  0.03475000  0.79166667  0.09800000  1.0
  B3+  B55  1  0.03475000  0.79166667  0.59800000  1.0
  B3+  B56  1  0.71525000  0.29166667  0.34800000  1.0
  B3+  B57  1  0.71525000  0.29166667  0.84800000  1.0
  B3+  B58  1  0.21525000  0.29166667  0.34800000  1.0
  B3+  B59  1  0.21525000  0.29166667  0.84800000  1.0
  B3+  B60  1  0.71525000  0.79166667  0.34800000  1.0
  B3+  B61  1  0.71525000  0.79166667  0.84800000  1.0
  B3+  B62  1  0.21525000  0.79166667  0.34800000  1.0
  B3+  B63  1  0.21525000  0.79166667  0.84800000  1.0
  H-  H64  1  0.72800000  0.54166667  0.20000000  1.0
  H-  H65  1  0.72800000  0.54166667  0.70000000  1.0
  H-  H66  1  0.22800000  0.54166667  0.20000000  1.0
  H-  H67  1  0.22800000  0.54166667  0.70000000  1.0
  H-  H68  1  0.72800000  0.04166667  0.20000000  1.0
  H-  H69  1  0.72800000  0.04166667  0.70000000  1.0
  H-  H70  1  0.22800000  0.04166667  0.20000000  1.0
  H-  H71  1  0.22800000  0.04166667  0.70000000  1.0
  H-  H72  1  0.52200000  0.54166667  0.45000000  1.0
  H-  H73  1  0.52200000  0.54166667  0.95000000  1.0
  H-  H74  1  0.02200000  0.54166667  0.45000000  1.0
  H-  H75  1  0.02200000  0.54166667  0.95000000  1.0
  H-  H76  1  0.52200000  0.04166667  0.45000000  1.0
  H-  H77  1  0.52200000  0.04166667  0.95000000  1.0
  H-  H78  1  0.02200000  0.04166667  0.45000000  1.0
  H-  H79  1  0.02200000  0.04166667  0.95000000  1.0
  H-  H80  1  0.77200000  0.29166667  0.30000000  1.0
  H-  H81  1  0.77200000  0.29166667  0.80000000  1.0
  H-  H82  1  0.27200000  0.29166667  0.30000000  1.0
  H-  H83  1  0.27200000  0.29166667  0.80000000  1.0
  H-  H84  1  0.77200000  0.79166667  0.30000000  1.0
  H-  H85  1  0.77200000  0.79166667  0.80000000  1.0
  H-  H86  1  0.27200000  0.79166667  0.30000000  1.0
  H-  H87  1  0.27200000  0.79166667  0.80000000  1.0
  H-  H88  1  0.97800000  0.29166667  0.05000000  1.0
  H-  H89  1  0.97800000  0.29166667  0.55000000  1.0
  H-  H90  1  0.47800000  0.29166667  0.05000000  1.0
  H-  H91  1  0.47800000  0.29166667  0.55000000  1.0
  H-  H92  1  0.97800000  0.79166667  0.05000000  1.0
  H-  H93  1  0.97800000  0.79166667  0.55000000  1.0
  H-  H94  1  0.47800000  0.79166667  0.05000000  1.0
  H-  H95  1  0.47800000  0.79166667  0.55000000  1.0
  H-  H96  1  0.89000000  0.54166667  0.45200000  1.0
  H-  H97  1  0.89000000  0.54166667  0.95200000  1.0
  H-  H98  1  0.39000000  0.54166667  0.45200000  1.0
  H-  H99  1  0.39000000  0.54166667  0.95200000  1.0
  H-  H100  1  0.89000000  0.04166667  0.45200000  1.0
  H-  H101  1  0.89000000  0.04166667  0.95200000  1.0
  H-  H102  1  0.39000000  0.04166667  0.45200000  1.0
  H-  H103  1  0.39000000  0.04166667  0.95200000  1.0
  H-  H104  1  0.86000000  0.54166667  0.20200000  1.0
  H-  H105  1  0.86000000  0.54166667  0.70200000  1.0
  H-  H106  1  0.36000000  0.54166667  0.20200000  1.0
  H-  H107  1  0.36000000  0.54166667  0.70200000  1.0
  H-  H108  1  0.86000000  0.04166667  0.20200000  1.0
  H-  H109  1  0.86000000  0.04166667  0.70200000  1.0
  H-  H110  1  0.36000000  0.04166667  0.20200000  1.0
  H-  H111  1  0.36000000  0.04166667  0.70200000  1.0
  H-  H112  1  0.61000000  0.29166667  0.04800000  1.0
  H-  H113  1  0.61000000  0.29166667  0.54800000  1.0
  H-  H114  1  0.11000000  0.29166667  0.04800000  1.0
  H-  H115  1  0.11000000  0.29166667  0.54800000  1.0
  H-  H116  1  0.61000000  0.79166667  0.04800000  1.0
  H-  H117  1  0.61000000  0.79166667  0.54800000  1.0
  H-  H118  1  0.11000000  0.79166667  0.04800000  1.0
  H-  H119  1  0.11000000  0.79166667  0.54800000  1.0
  H-  H120  1  0.64000000  0.29166667  0.29800000  1.0
  H-  H121  1  0.64000000  0.29166667  0.79800000  1.0
  H-  H122  1  0.14000000  0.29166667  0.29800000  1.0
  H-  H123  1  0.14000000  0.29166667  0.79800000  1.0
  H-  H124  1  0.64000000  0.79166667  0.29800000  1.0
  H-  H125  1  0.64000000  0.79166667  0.79800000  1.0
  H-  H126  1  0.14000000  0.79166667  0.29800000  1.0
  H-  H127  1  0.14000000  0.79166667  0.79800000  1.0
  H-  H128  1  0.96400000  0.63966667  0.33600000  1.0
  H-  H129  1  0.96400000  0.63966667  0.83600000  1.0
  H-  H130  1  0.46400000  0.63966667  0.33600000  1.0
  H-  H131  1  0.46400000  0.63966667  0.83600000  1.0
  H-  H132  1  0.96400000  0.13966667  0.33600000  1.0
  H-  H133  1  0.96400000  0.13966667  0.83600000  1.0
  H-  H134  1  0.46400000  0.13966667  0.33600000  1.0
  H-  H135  1  0.46400000  0.13966667  0.83600000  1.0
  H-  H136  1  0.78600000  0.44366667  0.08600000  1.0
  H-  H137  1  0.78600000  0.44366667  0.58600000  1.0
  H-  H138  1  0.28600000  0.44366667  0.08600000  1.0
  H-  H139  1  0.28600000  0.44366667  0.58600000  1.0
  H-  H140  1  0.78600000  0.94366667  0.08600000  1.0
  H-  H141  1  0.78600000  0.94366667  0.58600000  1.0
  H-  H142  1  0.28600000  0.94366667  0.08600000  1.0
  H-  H143  1  0.28600000  0.94366667  0.58600000  1.0
  H-  H144  1  0.53600000  0.38966667  0.16400000  1.0
  H-  H145  1  0.53600000  0.38966667  0.66400000  1.0
  H-  H146  1  0.03600000  0.38966667  0.16400000  1.0
  H-  H147  1  0.03600000  0.38966667  0.66400000  1.0
  H-  H148  1  0.53600000  0.88966667  0.16400000  1.0
  H-  H149  1  0.53600000  0.88966667  0.66400000  1.0
  H-  H150  1  0.03600000  0.88966667  0.16400000  1.0
  H-  H151  1  0.03600000  0.88966667  0.66400000  1.0
  H-  H152  1  0.71400000  0.19366667  0.41400000  1.0
  H-  H153  1  0.71400000  0.19366667  0.91400000  1.0
  H-  H154  1  0.21400000  0.19366667  0.41400000  1.0
  H-  H155  1  0.21400000  0.19366667  0.91400000  1.0
  H-  H156  1  0.71400000  0.69366667  0.41400000  1.0
  H-  H157  1  0.71400000  0.69366667  0.91400000  1.0
  H-  H158  1  0.21400000  0.69366667  0.41400000  1.0
  H-  H159  1  0.21400000  0.69366667  0.91400000  1.0
  H-  H160  1  0.53600000  0.19366667  0.16400000  1.0
  H-  H161  1  0.53600000  0.19366667  0.66400000  1.0
  H-  H162  1  0.03600000  0.19366667  0.16400000  1.0
  H-  H163  1  0.03600000  0.19366667  0.66400000  1.0
  H-  H164  1  0.53600000  0.69366667  0.16400000  1.0
  H-  H165  1  0.53600000  0.69366667  0.66400000  1.0
  H-  H166  1  0.03600000  0.69366667  0.16400000  1.0
  H-  H167  1  0.03600000  0.69366667  0.66400000  1.0
  H-  H168  1  0.71400000  0.38966667  0.41400000  1.0
  H-  H169  1  0.71400000  0.38966667  0.91400000  1.0
  H-  H170  1  0.21400000  0.38966667  0.41400000  1.0
  H-  H171  1  0.21400000  0.38966667  0.91400000  1.0
  H-  H172  1  0.71400000  0.88966667  0.41400000  1.0
  H-  H173  1  0.71400000  0.88966667  0.91400000  1.0
  H-  H174  1  0.21400000  0.88966667  0.41400000  1.0
  H-  H175  1  0.21400000  0.88966667  0.91400000  1.0
  H-  H176  1  0.96400000  0.44366667  0.33600000  1.0
  H-  H177  1  0.96400000  0.44366667  0.83600000  1.0
  H-  H178  1  0.46400000  0.44366667  0.33600000  1.0
  H-  H179  1  0.46400000  0.44366667  0.83600000  1.0
  H-  H180  1  0.96400000  0.94366667  0.33600000  1.0
  H-  H181  1  0.96400000  0.94366667  0.83600000  1.0
  H-  H182  1  0.46400000  0.94366667  0.33600000  1.0
  H-  H183  1  0.46400000  0.94366667  0.83600000  1.0
  H-  H184  1  0.78600000  0.63966667  0.08600000  1.0
  H-  H185  1  0.78600000  0.63966667  0.58600000  1.0
  H-  H186  1  0.28600000  0.63966667  0.08600000  1.0
  H-  H187  1  0.28600000  0.63966667  0.58600000  1.0
  H-  H188  1  0.78600000  0.13966667  0.08600000  1.0
  H-  H189  1  0.78600000  0.13966667  0.58600000  1.0
  H-  H190  1  0.28600000  0.13966667  0.08600000  1.0
  H-  H191  1  0.28600000  0.13966667  0.58600000  1.0
