# generated using pymatgen
data_LiBH4
_symmetry_space_group_name_H-M   'P 1'
_cell_length_a   8.79560000
_cell_length_b   13.61200000
_cell_length_c   14.26000000
_cell_angle_alpha   90.00000000
_cell_angle_beta   90.00000000
_cell_angle_gamma   90.00000000
_symmetry_Int_Tables_number   1
_chemical_formula_structural   LiBH4
_chemical_formula_sum   'Li32 B32 H128'
_cell_volume   1707.28858467
_cell_formula_units_Z   32
loop_
 _symmetry_equiv_pos_site_id
 _symmetry_equiv_pos_as_xyz
  1  'x, y, z'
loop_
 _atom_type_symbol
 _atom_type_oxidation_number
  Li+  1.0
  B3+  3.0
  H-  -1.0
loop_
 _atom_site_type_symbol
 _atom_site_label
 _atom_site_symmetry_multiplicity
 _atom_site_fract_x
 _atom_site_fract_y
 _atom_site_fract_z
 _atom_site_occupancy
  Li+  Li1  1  0.12500000  0.19925000  0.32840000  1.0
  Li+  Li1  1  0.12500000  0.19925000  0.82840000  1.0
  Li+  Li1  1  0.12500000  0.69925000  0.32840000  1.0
  Li+  Li1  1  0.12500000  0.69925000  0.82840000  1.0
  Li+  Li1  1  0.62500000  0.19925000  0.32840000  1.0
  Li+  Li1  1  0.62500000  0.19925000  0.82840000  1.0
  Li+  Li1  1  0.62500000  0.69925000  0.32840000  1.0
  Li+  Li1  1  0.62500000  0.69925000  0.82840000  1.0
  Li+  Li1  1  0.12500000  0.05075000  0.07840000  1.0
  Li+  Li1  1  0.12500000  0.05075000  0.57840000  1.0
  Li+  Li1  1  0.12500000  0.55075000  0.07840000  1.0
  Li+  Li1  1  0.12500000  0.55075000  0.57840000  1.0
  Li+  Li1  1  0.62500000  0.05075000  0.07840000  1.0
  Li+  Li1  1  0.62500000  0.05075000  0.57840000  1.0
  Li+  Li1  1  0.62500000  0.55075000  0.07840000  1.0
  Li+  Li1  1  0.62500000  0.55075000  0.57840000  1.0
  Li+  Li1  1  0.37500000  0.30075000  0.17160000  1.0
  Li+  Li1  1  0.37500000  0.30075000  0.67160000  1.0
  Li+  Li1  1  0.37500000  0.80075000  0.17160000  1.0
  Li+  Li1  1  0.37500000  0.80075000  0.67160000  1.0
  Li+  Li1  1  0.87500000  0.30075000  0.17160000  1.0
  Li+  Li1  1  0.87500000  0.30075000  0.67160000  1.0
  Li+  Li1  1  0.87500000  0.80075000  0.17160000  1.0
  Li+  Li1  1  0.87500000  0.80075000  0.67160000  1.0
  Li+  Li1  1  0.37500000  0.44925000  0.42160000  1.0
  Li+  Li1  1  0.37500000  0.44925000  0.92160000  1.0
  Li+  Li1  1  0.37500000  0.94925000  0.42160000  1.0
  Li+  Li1  1  0.37500000  0.94925000  0.92160000  1.0
  Li+  Li1  1  0.87500000  0.44925000  0.42160000  1.0
  Li+  Li1  1  0.87500000  0.44925000  0.92160000  1.0
  Li+  Li1  1  0.87500000  0.94925000  0.42160000  1.0
  Li+  Li1  1  0.87500000  0.94925000  0.92160000  1.0
  B3+  B1  1  0.12500000  0.03475000  0.40200000  1.0
  B3+  B1  1  0.12500000  0.03475000  0.90200000  1.0
  B3+  B1  1  0.12500000  0.53475000  0.40200000  1.0
  B3+  B1  1  0.12500000  0.53475000  0.90200000  1.0
  B3+  B1  1  0.62500000  0.03475000  0.40200000  1.0
  B3+  B1  1  0.62500000  0.03475000  0.90200000  1.0
  B3+  B1  1  0.62500000  0.53475000  0.40200000  1.0
  B3+  B1  1  0.62500000  0.53475000  0.90200000  1.0
  B3+  B1  1  0.12500000  0.21525000  0.15200000  1.0
  B3+  B1  1  0.12500000  0.21525000  0.65200000  1.0
  B3+  B1  1  0.12500000  0.71525000  0.15200000  1.0
  B3+  B1  1  0.12500000  0.71525000  0.65200000  1.0
  B3+  B1  1  0.62500000  0.21525000  0.15200000  1.0
  B3+  B1  1  0.62500000  0.21525000  0.65200000  1.0
  B3+  B1  1  0.62500000  0.71525000  0.15200000  1.0
  B3+  B1  1  0.62500000  0.71525000  0.65200000  1.0
  B3+  B1  1  0.37500000  0.46525000  0.09800000  1.0
  B3+  B1  1  0.37500000  0.46525000  0.59800000  1.0
  B3+  B1  1  0.37500000  0.96525000  0.09800000  1.0
  B3+  B1  1  0.37500000  0.96525000  0.59800000  1.0
  B3+  B1  1  0.87500000  0.46525000  0.09800000  1.0
  B3+  B1  1  0.87500000  0.46525000  0.59800000  1.0
  B3+  B1  1  0.87500000  0.96525000  0.09800000  1.0
  B3+  B1  1  0.87500000  0.96525000  0.59800000  1.0
  B3+  B1  1  0.37500000  0.28475000  0.34800000  1.0
  B3+  B1  1  0.37500000  0.28475000  0.84800000  1.0
  B3+  B1  1  0.37500000  0.78475000  0.34800000  1.0
  B3+  B1  1  0.37500000  0.78475000  0.84800000  1.0
  B3+  B1  1  0.87500000  0.28475000  0.34800000  1.0
  B3+  B1  1  0.87500000  0.28475000  0.84800000  1.0
  B3+  B1  1  0.87500000  0.78475000  0.34800000  1.0
  B3+  B1  1  0.87500000  0.78475000  0.84800000  1.0
  H-  H1  1  0.12500000  0.27200000  0.20000000  1.0
  H-  H1  1  0.12500000  0.27200000  0.70000000  1.0
  H-  H1  1  0.12500000  0.77200000  0.20000000  1.0
  H-  H1  1  0.12500000  0.77200000  0.70000000  1.0
  H-  H1  1  0.62500000  0.27200000  0.20000000  1.0
  H-  H1  1  0.62500000  0.27200000  0.70000000  1.0
  H-  H1  1  0.62500000  0.77200000  0.20000000  1.0
  H-  H1  1  0.62500000  0.77200000  0.70000000  1.0
  H-  H1  1  0.12500000  0.47800000  0.45000000  1.0
  H-  H1  1  0.12500000  0.47800000  0.95000000  1.0
  H-  H1  1  0.12500000  0.97800000  0.45000000  1.0
  H-  H1  1  0.12500000  0.97800000  0.95000000  1.0
  H-  H1  1  0.62500000  0.47800000  0.45000000  1.0
  H-  H1  1  0.62500000  0.47800000  0.95000000  1.0
  H-  H1  1  0.62500000  0.97800000  0.45000000  1.0
  H-  H1  1  0.62500000  0.97800000  0.95000000  1.0
  H-  H1  1  0.37500000  0.22800000  0.30000000  1.0
  H-  H1  1  0.37500000  0.22800000  0.80000000  1.0
  H-  H1  1  0.37500000  0.72800000  0.30000000  1.0
  H-  H1  1  0.37500000  0.72800000  0.80000000  1.0
  H-  H1  1  0.87500000  0.22800000  0.30000000  1.0
  H-  H1  1  0.87500000  0.22800000  0.80000000  1.0
  H-  H1  1  0.87500000  0.72800000  0.30000000  1.0
  H-  H1  1  0.87500000  0.72800000  0.80000000  1.0
  H-  H1  1  0.37500000  0.02200000  0.05000000  1.0
  H-  H1  1  0.37500000  0.02200000  0.55000000  1.0
  H-  H1  1  0.37500000  0.52200000  0.05000000  1.0
  H-  H1  1  0.37500000  0.52200000  0.55000000  1.0
  H-  H1  1  0.87500000  0.02200000  0.05000000  1.0
  H-  H1  1  0.87500000  0.02200000  0.55000000  1.0
  H-  H1  1  0.87500000  0.52200000  0.05000000  1.0
  H-  H1  1  0.87500000  0.52200000  0.55000000  1.0
  H-  H2  1  0.12500000  0.11000000  0.45200000  1.0
  H-  H2  1  0.12500000  0.11000000  0.95200000  1.0
  H-  H2  1  0.12500000  0.61000000  0.45200000  1.0
  H-  H2  1  0.12500000  0.61000000  0.95200000  1.0
  H-  H2  1  0.62500000  0.11000000  0.45200000  1.0
  H-  H2  1  0.62500000  0.11000000  0.95200000  1.0
  H-  H2  1  0.62500000  0.61000000  0.45200000  1.0
  H-  H2  1  0.62500000  0.61000000  0.95200000  1.0
  H-  H2  1  0.12500000  0.14000000  0.20200000  1.0
  H-  H2  1  0.12500000  0.14000000  0.70200000  1.0
  H-  H2  1  0.12500000  0.64000000  0.20200000  1.0
  H-  H2  1  0.12500000  0.64000000  0.70200000  1.0
  H-  H2  1  0.62500000  0.14000000  0.20200000  1.0
  H-  H2  1  0.62500000  0.14000000  0.70200000  1.0
  H-  H2  1  0.62500000  0.64000000  0.20200000  1.0
  H-  H2  1  0.62500000  0.64000000  0.70200000  1.0
  H-  H2  1  0.37500000  0.39000000  0.04800000  1.0
  H-  H2  1  0.37500000  0.39000000  0.54800000  1.0
  H-  H2  1  0.37500000  0.89000000  0.04800000  1.0
  H-  H2  1  0.37500000  0.89000000  0.54800000  1.0
  H-  H2  1  0.87500000  0.39000000  0.04800000  1.0
  H-  H2  1  0.87500000  0.39000000  0.54800000  1.0
  H-  H2  1  0.87500000  0.89000000  0.04800000  1.0
  H-  H2  1  0.87500000  0.89000000  0.54800000  1.0
  H-  H2  1  0.37500000  0.36000000  0.29800000  1.0
  H-  H2  1  0.37500000  0.36000000  0.79800000  1.0
  H-  H2  1  0.37500000  0.86000000  0.29800000  1.0
  H-  H2  1  0.37500000  0.86000000  0.79800000  1.0
  H-  H2  1  0.87500000  0.36000000  0.29800000  1.0
  H-  H2  1  0.87500000  0.36000000  0.79800000  1.0
  H-  H2  1  0.87500000  0.86000000  0.29800000  1.0
  H-  H2  1  0.87500000  0.86000000  0.79800000  1.0
  H-  H3  1  0.02700000  0.03600000  0.33600000  1.0
  H-  H3  1  0.02700000  0.03600000  0.83600000  1.0
  H-  H3  1  0.02700000  0.53600000  0.33600000  1.0
  H-  H3  1  0.02700000  0.53600000  0.83600000  1.0
  H-  H3  1  0.52700000  0.03600000  0.33600000  1.0
  H-  H3  1  0.52700000  0.03600000  0.83600000  1.0
  H-  H3  1  0.52700000  0.53600000  0.33600000  1.0
  H-  H3  1  0.52700000  0.53600000  0.83600000  1.0
  H-  H3  1  0.22300000  0.21400000  0.08600000  1.0
  H-  H3  1  0.22300000  0.21400000  0.58600000  1.0
  H-  H3  1  0.22300000  0.71400000  0.08600000  1.0
  H-  H3  1  0.22300000  0.71400000  0.58600000  1.0
  H-  H3  1  0.72300000  0.21400000  0.08600000  1.0
  H-  H3  1  0.72300000  0.21400000  0.58600000  1.0
  H-  H3  1  0.72300000  0.71400000  0.08600000  1.0
  H-  H3  1  0.72300000  0.71400000  0.58600000  1.0
  H-  H3  1  0.27700000  0.46400000  0.16400000  1.0
  H-  H3  1  0.27700000  0.46400000  0.66400000  1.0
  H-  H3  1  0.27700000  0.96400000  0.16400000  1.0
  H-  H3  1  0.27700000  0.96400000  0.66400000  1.0
  H-  H3  1  0.77700000  0.46400000  0.16400000  1.0
  H-  H3  1  0.77700000  0.46400000  0.66400000  1.0
  H-  H3  1  0.77700000  0.96400000  0.16400000  1.0
  H-  H3  1  0.77700000  0.96400000  0.66400000  1.0
  H-  H3  1  0.47300000  0.28600000  0.41400000  1.0
  H-  H3  1  0.47300000  0.28600000  0.91400000  1.0
  H-  H3  1  0.47300000  0.78600000  0.41400000  1.0
  H-  H3  1  0.47300000  0.78600000  0.91400000  1.0
  H-  H3  1  0.97300000  0.28600000  0.41400000  1.0
  H-  H3  1  0.97300000  0.28600000  0.91400000  1.0
  H-  H3  1  0.97300000  0.78600000  0.41400000  1.0
  H-  H3  1  0.97300000  0.78600000  0.91400000  1.0
  H-  H3  1  0.47300000  0.46400000  0.16400000  1.0
  H-  H3  1  0.47300000  0.46400000  0.66400000  1.0
  H-  H3  1  0.47300000  0.96400000  0.16400000  1.0
  H-  H3  1  0.47300000  0.96400000  0.66400000  1.0
  H-  H3  1  0.97300000  0.46400000  0.16400000  1.0
  H-  H3  1  0.97300000  0.46400000  0.66400000  1.0
  H-  H3  1  0.97300000  0.96400000  0.16400000  1.0
  H-  H3  1  0.97300000  0.96400000  0.66400000  1.0
  H-  H3  1  0.27700000  0.28600000  0.41400000  1.0
  H-  H3  1  0.27700000  0.28600000  0.91400000  1.0
  H-  H3  1  0.27700000  0.78600000  0.41400000  1.0
  H-  H3  1  0.27700000  0.78600000  0.91400000  1.0
  H-  H3  1  0.77700000  0.28600000  0.41400000  1.0
  H-  H3  1  0.77700000  0.28600000  0.91400000  1.0
  H-  H3  1  0.77700000  0.78600000  0.41400000  1.0
  H-  H3  1  0.77700000  0.78600000  0.91400000  1.0
  H-  H3  1  0.22300000  0.03600000  0.33600000  1.0
  H-  H3  1  0.22300000  0.03600000  0.83600000  1.0
  H-  H3  1  0.22300000  0.53600000  0.33600000  1.0
  H-  H3  1  0.22300000  0.53600000  0.83600000  1.0
  H-  H3  1  0.72300000  0.03600000  0.33600000  1.0
  H-  H3  1  0.72300000  0.03600000  0.83600000  1.0
  H-  H3  1  0.72300000  0.53600000  0.33600000  1.0
  H-  H3  1  0.72300000  0.53600000  0.83600000  1.0
  H-  H3  1  0.02700000  0.21400000  0.08600000  1.0
  H-  H3  1  0.02700000  0.21400000  0.58600000  1.0
  H-  H3  1  0.02700000  0.71400000  0.08600000  1.0
  H-  H3  1  0.02700000  0.71400000  0.58600000  1.0
  H-  H3  1  0.52700000  0.21400000  0.08600000  1.0
  H-  H3  1  0.52700000  0.21400000  0.58600000  1.0
  H-  H3  1  0.52700000  0.71400000  0.08600000  1.0
  H-  H3  1  0.52700000  0.71400000  0.58600000  1.0
