# generated using pymatgen
data_Li13La6Ta(SnO8)3
_symmetry_space_group_name_H-M   'P 1'
_cell_length_a   22.34738718
_cell_length_b   11.17369359
_cell_length_c   11.17369359
_cell_angle_alpha   109.47122063
_cell_angle_beta   70.52877937
_cell_angle_gamma   70.52877937
_symmetry_Int_Tables_number   1
_chemical_formula_structural   Li13La6Ta(SnO8)3
_chemical_formula_sum   'Li52 La24 Ta4 Sn12 O96'
_cell_volume   2147.82245391
_cell_formula_units_Z   4
loop_
 _symmetry_equiv_pos_site_id
 _symmetry_equiv_pos_as_xyz
  1  'x, y, z'
loop_
 _atom_type_symbol
 _atom_type_oxidation_number
  Li+  1.0
  La3+  3.0
  Ta5+  5.0
  Sn4+  4.0
  O2-  -2.0
loop_
 _atom_site_type_symbol
 _atom_site_label
 _atom_site_symmetry_multiplicity
 _atom_site_fract_x
 _atom_site_fract_y
 _atom_site_fract_z
 _atom_site_occupancy
  Li+  Li0  1  0.12250000  0.17100000  0.51800000  1.0
  Li+  Li1  1  0.62250000  0.17100000  0.51800000  1.0
  Li+  Li2  1  0.12750000  0.51300000  0.16600000  1.0
  Li+  Li3  1  0.62750000  0.51300000  0.16600000  1.0
  Li+  Li4  1  0.04325432  0.74469658  0.76070154  1.0
  Li+  Li5  1  0.54200000  0.74500000  0.76300000  1.0
  Li+  Li6  1  0.38400000  0.90300000  0.23700000  1.0
  Li+  Li7  1  0.88239042  0.90429546  0.23434985  1.0
  Li+  Li8  1  0.45150000  0.01300000  0.01800000  1.0
  Li+  Li9  1  0.95150000  0.01300000  0.01800000  1.0
  Li+  Li10  1  0.29672905  0.67248021  0.66393652  1.0
  Li+  Li11  1  0.79850000  0.67100000  0.66600000  1.0
  Li+  Li12  1  0.37151669  0.48753764  0.33272384  1.0
  Li+  Li13  1  0.87477521  0.48618787  0.33847286  1.0
  Li+  Li14  1  0.08575745  0.73563524  0.49486731  1.0
  Li+  Li15  1  0.58790575  0.73108590  0.49320872  1.0
  Li+  Li16  1  0.45800000  0.25500000  0.73700000  1.0
  Li+  Li17  1  0.95800000  0.25500000  0.73700000  1.0
  Li+  Li18  1  0.11600000  0.09700000  0.26300000  1.0
  Li+  Li19  1  0.61627142  0.09824477  0.26059215  1.0
  Li+  Li20  1  0.29200000  0.01300000  0.49500000  1.0
  Li+  Li21  1  0.79200000  0.01300000  0.49500000  1.0
  Li+  Li22  1  0.13400000  0.48700000  0.65300000  1.0
  Li+  Li23  1  0.63400000  0.48700000  0.65300000  1.0
  Li+  Li24  1  0.16450000  0.25500000  0.01800000  1.0
  Li+  Li25  1  0.66450000  0.25500000  0.01800000  1.0
  Li+  Li26  1  0.49350000  0.24500000  0.66600000  1.0
  Li+  Li27  1  0.99350000  0.24500000  0.66600000  1.0
  Li+  Li28  1  0.04091636  0.17346439  0.14961974  1.0
  Li+  Li29  1  0.54166048  0.17018060  0.15321909  1.0
  Li+  Li30  1  0.36600000  0.51300000  0.84700000  1.0
  Li+  Li31  1  0.86600000  0.51300000  0.84700000  1.0
  Li+  Li32  1  0.04850000  0.91600000  0.42100000  1.0
  Li+  Li33  1  0.54850000  0.91600000  0.42100000  1.0
  Li+  Li34  1  0.33550000  0.74500000  0.48200000  1.0
  Li+  Li35  1  0.83139227  0.74375912  0.47884940  1.0
  Li+  Li36  1  0.41450000  0.90300000  0.16600000  1.0
  Li+  Li37  1  0.91437303  0.90504687  0.16471513  1.0
  Li+  Li38  1  0.37500000  0.87500000  0.37500000  1.0
  Li+  Li39  1  0.88271874  0.87397439  0.37332510  1.0
  Li+  Li40  1  0.18750000  0.37500000  0.00000000  1.0
  Li+  Li41  1  0.69132109  0.37388691  0.00199980  1.0
  Li+  Li42  1  0.31250000  0.75000000  0.87500000  1.0
  Li+  Li43  1  0.81250000  0.75000000  0.87500000  1.0
  Li+  Li44  1  0.44051808  0.24953617  0.12464514  1.0
  Li+  Li45  1  0.93998299  0.24633505  0.12375056  1.0
  Li+  Li46  1  0.37777830  0.37795107  0.87301280  1.0
  Li+  Li47  1  0.87500000  0.37500000  0.87500000  1.0
  Li+  Li48  1  0.31250000  0.62500000  0.50000000  1.0
  Li+  Li49  1  0.81250000  0.62500000  0.50000000  1.0
  Li+  Li50  1  0.18750000  0.25000000  0.62500000  1.0
  Li+  Li51  1  0.68750000  0.25000000  0.62500000  1.0
  La3+  La52  1  0.37500000  0.62500000  0.12500000  1.0
  La3+  La53  1  0.87500000  0.62500000  0.12500000  1.0
  La3+  La54  1  0.12500000  0.87500000  0.87500000  1.0
  La3+  La55  1  0.62500000  0.87500000  0.87500000  1.0
  La3+  La56  1  0.06250000  0.62500000  0.00000000  1.0
  La3+  La57  1  0.56250000  0.62500000  0.00000000  1.0
  La3+  La58  1  0.18750000  0.87500000  0.50000000  1.0
  La3+  La59  1  0.68578369  0.87677377  0.49971171  1.0
  La3+  La60  1  0.18750000  0.75000000  0.12500000  1.0
  La3+  La61  1  0.68750000  0.75000000  0.12500000  1.0
  La3+  La62  1  0.06250000  0.25000000  0.87500000  1.0
  La3+  La63  1  0.56250000  0.25000000  0.87500000  1.0
  La3+  La64  1  0.12500000  0.37500000  0.37500000  1.0
  La3+  La65  1  0.62500000  0.37500000  0.37500000  1.0
  La3+  La66  1  0.37500000  0.12500000  0.62500000  1.0
  La3+  La67  1  0.87500000  0.12500000  0.62500000  1.0
  La3+  La68  1  0.43750000  0.37500000  0.50000000  1.0
  La3+  La69  1  0.93806588  0.37667357  0.50011126  1.0
  La3+  La70  1  0.31250000  0.12500000  0.00000000  1.0
  La3+  La71  1  0.81250000  0.12500000  0.00000000  1.0
  La3+  La72  1  0.31060269  0.25188796  0.37748902  1.0
  La3+  La73  1  0.81162618  0.25038821  0.37399205  1.0
  La3+  La74  1  0.43750000  0.75000000  0.62500000  1.0
  La3+  La75  1  0.93750000  0.75000000  0.62500000  1.0
  Ta5+  Ta76  1  0.00000000  0.50000000  0.75000000  1.0
  Ta5+  Ta77  1  0.49900457  0.49156550  0.74922690  1.0
  Ta5+  Ta78  1  0.99801032  0.50220149  0.24733352  1.0
  Ta5+  Ta79  1  0.50000000  0.50000000  0.25000000  1.0
  Sn4+  Sn80  1  0.25000000  0.50000000  0.25000000  1.0
  Sn4+  Sn81  1  0.75000000  0.50000000  0.25000000  1.0
  Sn4+  Sn82  1  0.00000000  0.00000000  0.25000000  1.0
  Sn4+  Sn83  1  0.50295835  0.99822343  0.25126482  1.0
  Sn4+  Sn84  1  0.25000000  0.00000000  0.75000000  1.0
  Sn4+  Sn85  1  0.75000000  0.00000000  0.75000000  1.0
  Sn4+  Sn86  1  0.25000000  0.50000000  0.75000000  1.0
  Sn4+  Sn87  1  0.75000000  0.50000000  0.75000000  1.0
  Sn4+  Sn88  1  0.25000000  0.00000000  0.25000000  1.0
  Sn4+  Sn89  1  0.74855274  0.99780844  0.24691592  1.0
  Sn4+  Sn90  1  0.00173069  0.00067768  0.75092453  1.0
  Sn4+  Sn91  1  0.50000000  0.00000000  0.75000000  1.0
  O2-  O92  1  0.45145941  0.40979186  0.86579573  1.0
  O2-  O93  1  0.95130000  0.41350000  0.86390000  1.0
  O2-  O94  1  0.29870000  0.51650000  0.06610000  1.0
  O2-  O95  1  0.79870000  0.51650000  0.06610000  1.0
  O2-  O96  1  0.10020000  0.98350000  0.13610000  1.0
  O2-  O97  1  0.60020000  0.98350000  0.13610000  1.0
  O2-  O98  1  0.14980000  0.08650000  0.93390000  1.0
  O2-  O99  1  0.64980000  0.08650000  0.93390000  1.0
  O2-  O100  1  0.00825000  0.88610000  0.04960000  1.0
  O2-  O101  1  0.50825000  0.88610000  0.04960000  1.0
  O2-  O102  1  0.45675000  0.68390000  0.95040000  1.0
  O2-  O103  1  0.95675000  0.68390000  0.95040000  1.0
  O2-  O104  1  0.29325000  0.61390000  0.34740000  1.0
  O2-  O105  1  0.79325000  0.61390000  0.34740000  1.0
  O2-  O106  1  0.24175000  0.81610000  0.65260000  1.0
  O2-  O107  1  0.74175000  0.81610000  0.65260000  1.0
  O2-  O108  1  0.15805000  0.70040000  0.33650000  1.0
  O2-  O109  1  0.65805000  0.70040000  0.33650000  1.0
  O2-  O110  1  0.05695000  0.79960000  0.23350000  1.0
  O2-  O111  1  0.55695000  0.79960000  0.23350000  1.0
  O2-  O112  1  0.09779001  0.40146022  0.76474286  1.0
  O2-  O113  1  0.59195000  0.40260000  0.76650000  1.0
  O2-  O114  1  0.19305000  0.09740000  0.66350000  1.0
  O2-  O115  1  0.69305000  0.09740000  0.66350000  1.0
  O2-  O116  1  0.04870000  0.58650000  0.63610000  1.0
  O2-  O117  1  0.55431899  0.58422178  0.63924106  1.0
  O2-  O118  1  0.20130000  0.48350000  0.43390000  1.0
  O2-  O119  1  0.70081891  0.48341023  0.43249343  1.0
  O2-  O120  1  0.39980000  0.01650000  0.36390000  1.0
  O2-  O121  1  0.89980000  0.01650000  0.36390000  1.0
  O2-  O122  1  0.35020000  0.91350000  0.56610000  1.0
  O2-  O123  1  0.85020000  0.91350000  0.56610000  1.0
  O2-  O124  1  0.49589402  0.11824298  0.45247684  1.0
  O2-  O125  1  0.99175000  0.11390000  0.45040000  1.0
  O2-  O126  1  0.04325000  0.31610000  0.54960000  1.0
  O2-  O127  1  0.54325000  0.31610000  0.54960000  1.0
  O2-  O128  1  0.20443918  0.38737050  0.14906523  1.0
  O2-  O129  1  0.70675000  0.38610000  0.15260000  1.0
  O2-  O130  1  0.25742666  0.18386073  0.84677928  1.0
  O2-  O131  1  0.75825000  0.18390000  0.84740000  1.0
  O2-  O132  1  0.34195000  0.29960000  0.16350000  1.0
  O2-  O133  1  0.84195000  0.29960000  0.16350000  1.0
  O2-  O134  1  0.44014599  0.20099775  0.26666479  1.0
  O2-  O135  1  0.94305000  0.20040000  0.26650000  1.0
  O2-  O136  1  0.40805000  0.59740000  0.73350000  1.0
  O2-  O137  1  0.90805000  0.59740000  0.73350000  1.0
  O2-  O138  1  0.30695000  0.90260000  0.83650000  1.0
  O2-  O139  1  0.80866520  0.90374478  0.83788095  1.0
  O2-  O140  1  0.40805000  0.58650000  0.45040000  1.0
  O2-  O141  1  0.90805000  0.58650000  0.45040000  1.0
  O2-  O142  1  0.30695000  0.48350000  0.54960000  1.0
  O2-  O143  1  0.80695000  0.48350000  0.54960000  1.0
  O2-  O144  1  0.33753118  0.01294206  0.15365005  1.0
  O2-  O145  1  0.84195000  0.01650000  0.15260000  1.0
  O2-  O146  1  0.44378595  0.91317670  0.84541892  1.0
  O2-  O147  1  0.94305000  0.91350000  0.84740000  1.0
  O2-  O148  1  0.20130000  0.11390000  0.16350000  1.0
  O2-  O149  1  0.69757312  0.11197984  0.16382530  1.0
  O2-  O150  1  0.04993789  0.31609933  0.27047781  1.0
  O2-  O151  1  0.54870000  0.31610000  0.26650000  1.0
  O2-  O152  1  0.35020000  0.38610000  0.73350000  1.0
  O2-  O153  1  0.85020000  0.38610000  0.73350000  1.0
  O2-  O154  1  0.39980000  0.18390000  0.83650000  1.0
  O2-  O155  1  0.89980000  0.18390000  0.83650000  1.0
  O2-  O156  1  0.25756854  0.30124673  0.64072929  1.0
  O2-  O157  1  0.75825000  0.29960000  0.63610000  1.0
  O2-  O158  1  0.20668277  0.20314503  0.43267233  1.0
  O2-  O159  1  0.70675000  0.20040000  0.43390000  1.0
  O2-  O160  1  0.04325000  0.59740000  0.36390000  1.0
  O2-  O161  1  0.54325000  0.59740000  0.36390000  1.0
  O2-  O162  1  0.49175000  0.90260000  0.56610000  1.0
  O2-  O163  1  0.99299657  0.89894495  0.56306503  1.0
  O2-  O164  1  0.09195000  0.41350000  0.04960000  1.0
  O2-  O165  1  0.59195000  0.41350000  0.04960000  1.0
  O2-  O166  1  0.19305000  0.51650000  0.95040000  1.0
  O2-  O167  1  0.69305000  0.51650000  0.95040000  1.0
  O2-  O168  1  0.15805000  0.98350000  0.34740000  1.0
  O2-  O169  1  0.65754261  0.98562182  0.34934814  1.0
  O2-  O170  1  0.05737239  0.08742834  0.65654539  1.0
  O2-  O171  1  0.55695000  0.08650000  0.65260000  1.0
  O2-  O172  1  0.29870000  0.88610000  0.33650000  1.0
  O2-  O173  1  0.79870000  0.88610000  0.33650000  1.0
  O2-  O174  1  0.45130000  0.68390000  0.23350000  1.0
  O2-  O175  1  0.95130000  0.68390000  0.23350000  1.0
  O2-  O176  1  0.14980000  0.61390000  0.76650000  1.0
  O2-  O177  1  0.64980000  0.61390000  0.76650000  1.0
  O2-  O178  1  0.10020000  0.81610000  0.66350000  1.0
  O2-  O179  1  0.60020000  0.81610000  0.66350000  1.0
  O2-  O180  1  0.24208997  0.69936887  0.86695823  1.0
  O2-  O181  1  0.74175000  0.70040000  0.86390000  1.0
  O2-  O182  1  0.29068547  0.79957137  0.06536193  1.0
  O2-  O183  1  0.79325000  0.79960000  0.06610000  1.0
  O2-  O184  1  0.45675000  0.40260000  0.13610000  1.0
  O2-  O185  1  0.95675000  0.40260000  0.13610000  1.0
  O2-  O186  1  0.00825000  0.09740000  0.93390000  1.0
  O2-  O187  1  0.50844219  0.09446321  0.93258206  1.0
