# generated using pymatgen
data_Li13La6Ta(SnO8)3
_symmetry_space_group_name_H-M   'P 1'
_cell_length_a   11.20245005
_cell_length_b   22.40490010
_cell_length_c   11.20245005
_cell_angle_alpha   70.52877937
_cell_angle_beta   70.52877937
_cell_angle_gamma   109.47122063
_symmetry_Int_Tables_number   1
_chemical_formula_structural   Li13La6Ta(SnO8)3
_chemical_formula_sum   'Li52 La24 Ta4 Sn12 O96'
_cell_volume   2164.44798442
_cell_formula_units_Z   4
loop_
 _symmetry_equiv_pos_site_id
 _symmetry_equiv_pos_as_xyz
  1  'x, y, z'
loop_
 _atom_type_symbol
 _atom_type_oxidation_number
  Li+  1.0
  La3+  3.0
  Ta5+  5.0
  Sn4+  4.0
  O2-  -2.0
loop_
 _atom_site_type_symbol
 _atom_site_label
 _atom_site_symmetry_multiplicity
 _atom_site_fract_x
 _atom_site_fract_y
 _atom_site_fract_z
 _atom_site_occupancy
  Li+  Li0  1  0.76800000  0.54416667  0.82900000  1.0
  Li+  Li1  1  0.76800000  0.04416667  0.82900000  1.0
  Li+  Li2  1  0.41600000  0.53916667  0.48700000  1.0
  Li+  Li3  1  0.41600000  0.03916667  0.48700000  1.0
  Li+  Li4  1  0.01300000  0.62466667  0.25500000  1.0
  Li+  Li5  1  0.01300000  0.12466667  0.25500000  1.0
  Li+  Li6  1  0.48700000  0.28266667  0.09700000  1.0
  Li+  Li7  1  0.48700000  0.78266667  0.09700000  1.0
  Li+  Li8  1  0.26800000  0.21516667  0.98700000  1.0
  Li+  Li9  1  0.26800000  0.71516667  0.98700000  1.0
  Li+  Li10  1  0.91600000  0.36816667  0.32900000  1.0
  Li+  Li11  1  0.91600000  0.86816667  0.32900000  1.0
  Li+  Li12  1  0.58400000  0.29416667  0.51300000  1.0
  Li+  Li13  1  0.58400000  0.79416667  0.51300000  1.0
  Li+  Li14  1  0.74500000  0.58116667  0.26800000  1.0
  Li+  Li15  1  0.74500000  0.08116667  0.26800000  1.0
  Li+  Li16  1  0.98700000  0.20866667  0.74500000  1.0
  Li+  Li17  1  0.98700000  0.70866667  0.74500000  1.0
  Li+  Li18  1  0.51300000  0.55066667  0.90300000  1.0
  Li+  Li19  1  0.51300000  0.05066667  0.90300000  1.0
  Li+  Li20  1  0.74500000  0.37466667  0.98700000  1.0
  Li+  Li21  1  0.74500000  0.87466667  0.98700000  1.0
  Li+  Li22  1  0.90300000  0.53266667  0.51300000  1.0
  Li+  Li23  1  0.90300000  0.03266667  0.51300000  1.0
  Li+  Li24  1  0.26800000  0.50216667  0.74500000  1.0
  Li+  Li25  1  0.26800000  0.00216667  0.74500000  1.0
  Li+  Li26  1  0.91600000  0.17316667  0.75500000  1.0
  Li+  Li27  1  0.91600000  0.67316667  0.75500000  1.0
  Li+  Li28  1  0.40300000  0.62466667  0.82900000  1.0
  Li+  Li29  1  0.40300000  0.12466667  0.82900000  1.0
  Li+  Li30  1  0.09700000  0.30066667  0.48700000  1.0
  Li+  Li31  1  0.09700000  0.80066667  0.48700000  1.0
  Li+  Li32  1  0.67100000  0.61816667  0.08400000  1.0
  Li+  Li33  1  0.67100000  0.11816667  0.08400000  1.0
  Li+  Li34  1  0.73200000  0.33116667  0.25500000  1.0
  Li+  Li35  1  0.73200000  0.83116667  0.25500000  1.0
  Li+  Li36  1  0.41600000  0.25216667  0.09700000  1.0
  Li+  Li37  1  0.41600000  0.75216667  0.09700000  1.0
  Li+  Li38  1  0.62500000  0.29166667  0.12500000  1.0
  Li+  Li39  1  0.62500000  0.79166667  0.12500000  1.0
  Li+  Li40  1  0.25000000  0.47916667  0.62500000  1.0
  Li+  Li41  1  0.25000000  0.97916667  0.62500000  1.0
  Li+  Li42  1  0.12500000  0.35416667  0.25000000  1.0
  Li+  Li43  1  0.12500000  0.85416667  0.25000000  1.0
  Li+  Li44  1  0.37500000  0.22916667  0.75000000  1.0
  Li+  Li45  1  0.37500000  0.72916667  0.75000000  1.0
  Li+  Li46  1  0.12500000  0.29166667  0.62500000  1.0
  Li+  Li47  1  0.12500000  0.79166667  0.62500000  1.0
  Li+  Li48  1  0.75000000  0.35416667  0.37500000  1.0
  Li+  Li49  1  0.75000000  0.85416667  0.37500000  1.0
  Li+  Li50  1  0.87500000  0.47916667  0.75000000  1.0
  Li+  Li51  1  0.87500000  0.97916667  0.75000000  1.0
  La3+  La52  1  0.37500000  0.29166667  0.37500000  1.0
  La3+  La53  1  0.37500000  0.79166667  0.37500000  1.0
  La3+  La54  1  0.12500000  0.54166667  0.12500000  1.0
  La3+  La55  1  0.12500000  0.04166667  0.12500000  1.0
  La3+  La56  1  0.25000000  0.60416667  0.37500000  1.0
  La3+  La57  1  0.25000000  0.10416667  0.37500000  1.0
  La3+  La58  1  0.75000000  0.47916667  0.12500000  1.0
  La3+  La59  1  0.75000000  0.97916667  0.12500000  1.0
  La3+  La60  1  0.37500000  0.47916667  0.25000000  1.0
  La3+  La61  1  0.37500000  0.97916667  0.25000000  1.0
  La3+  La62  1  0.12500000  0.60416667  0.75000000  1.0
  La3+  La63  1  0.12500000  0.10416667  0.75000000  1.0
  La3+  La64  1  0.62500000  0.54166667  0.62500000  1.0
  La3+  La65  1  0.62500000  0.04166667  0.62500000  1.0
  La3+  La66  1  0.87500000  0.29166667  0.87500000  1.0
  La3+  La67  1  0.87500000  0.79166667  0.87500000  1.0
  La3+  La68  1  0.75000000  0.22916667  0.62500000  1.0
  La3+  La69  1  0.75000000  0.72916667  0.62500000  1.0
  La3+  La70  1  0.25000000  0.35416667  0.87500000  1.0
  La3+  La71  1  0.25000000  0.85416667  0.87500000  1.0
  La3+  La72  1  0.62500000  0.35416667  0.75000000  1.0
  La3+  La73  1  0.62500000  0.85416667  0.75000000  1.0
  La3+  La74  1  0.87500000  0.22916667  0.25000000  1.0
  La3+  La75  1  0.87500000  0.72916667  0.25000000  1.0
  Ta5+  Ta76  1  0.00000000  0.66666667  0.50000000  1.0
  Ta5+  Ta77  1  0.00000000  0.16666667  0.50000000  1.0
  Ta5+  Ta78  1  0.50000000  0.66666667  0.50000000  1.0
  Ta5+  Ta79  1  0.50000000  0.16666667  0.50000000  1.0
  Sn4+  Sn80  1  0.50000000  0.41666667  0.50000000  1.0
  Sn4+  Sn81  1  0.50000000  0.91666667  0.50000000  1.0
  Sn4+  Sn82  1  0.50000000  0.66666667  0.00000000  1.0
  Sn4+  Sn83  1  0.50000000  0.16666667  0.00000000  1.0
  Sn4+  Sn84  1  0.00000000  0.41666667  0.00000000  1.0
  Sn4+  Sn85  1  0.00000000  0.91666667  0.00000000  1.0
  Sn4+  Sn86  1  0.00000000  0.41666667  0.50000000  1.0
  Sn4+  Sn87  1  0.00000000  0.91666667  0.50000000  1.0
  Sn4+  Sn88  1  0.50000000  0.41666667  0.00000000  1.0
  Sn4+  Sn89  1  0.50000000  0.91666667  0.00000000  1.0
  Sn4+  Sn90  1  0.00000000  0.66666667  0.00000000  1.0
  Sn4+  Sn91  1  0.00000000  0.16666667  0.00000000  1.0
  O2-  O92  1  0.11390000  0.21536667  0.58650000  1.0
  O2-  O93  1  0.11390000  0.71536667  0.58650000  1.0
  O2-  O94  1  0.31610000  0.36796667  0.48350000  1.0
  O2-  O95  1  0.31610000  0.86796667  0.48350000  1.0
  O2-  O96  1  0.38610000  0.56646667  0.01650000  1.0
  O2-  O97  1  0.38610000  0.06646667  0.01650000  1.0
  O2-  O98  1  0.18390000  0.51686667  0.91350000  1.0
  O2-  O99  1  0.18390000  0.01686667  0.91350000  1.0
  O2-  O100  1  0.29960000  0.65841667  0.11390000  1.0
  O2-  O101  1  0.29960000  0.15841667  0.11390000  1.0
  O2-  O102  1  0.20040000  0.20991667  0.31610000  1.0
  O2-  O103  1  0.20040000  0.70991667  0.31610000  1.0
  O2-  O104  1  0.59740000  0.37341667  0.38610000  1.0
  O2-  O105  1  0.59740000  0.87341667  0.38610000  1.0
  O2-  O106  1  0.90260000  0.42491667  0.18390000  1.0
  O2-  O107  1  0.90260000  0.92491667  0.18390000  1.0
  O2-  O108  1  0.58650000  0.50861667  0.29960000  1.0
  O2-  O109  1  0.58650000  0.00861667  0.29960000  1.0
  O2-  O110  1  0.48350000  0.60971667  0.20040000  1.0
  O2-  O111  1  0.48350000  0.10971667  0.20040000  1.0
  O2-  O112  1  0.01650000  0.57471667  0.59740000  1.0
  O2-  O113  1  0.01650000  0.07471667  0.59740000  1.0
  O2-  O114  1  0.91350000  0.47361667  0.90260000  1.0
  O2-  O115  1  0.91350000  0.97361667  0.90260000  1.0
  O2-  O116  1  0.88610000  0.61796667  0.41350000  1.0
  O2-  O117  1  0.88610000  0.11796667  0.41350000  1.0
  O2-  O118  1  0.68390000  0.46536667  0.51650000  1.0
  O2-  O119  1  0.68390000  0.96536667  0.51650000  1.0
  O2-  O120  1  0.61390000  0.26686667  0.98350000  1.0
  O2-  O121  1  0.61390000  0.76686667  0.98350000  1.0
  O2-  O122  1  0.81610000  0.31646667  0.08650000  1.0
  O2-  O123  1  0.81610000  0.81646667  0.08650000  1.0
  O2-  O124  1  0.70040000  0.17491667  0.88610000  1.0
  O2-  O125  1  0.70040000  0.67491667  0.88610000  1.0
  O2-  O126  1  0.79960000  0.62341667  0.68390000  1.0
  O2-  O127  1  0.79960000  0.12341667  0.68390000  1.0
  O2-  O128  1  0.40260000  0.45991667  0.61390000  1.0
  O2-  O129  1  0.40260000  0.95991667  0.61390000  1.0
  O2-  O130  1  0.09740000  0.40841667  0.81610000  1.0
  O2-  O131  1  0.09740000  0.90841667  0.81610000  1.0
  O2-  O132  1  0.41350000  0.32471667  0.70040000  1.0
  O2-  O133  1  0.41350000  0.82471667  0.70040000  1.0
  O2-  O134  1  0.51650000  0.22361667  0.79960000  1.0
  O2-  O135  1  0.51650000  0.72361667  0.79960000  1.0
  O2-  O136  1  0.98350000  0.25861667  0.40260000  1.0
  O2-  O137  1  0.98350000  0.75861667  0.40260000  1.0
  O2-  O138  1  0.08650000  0.35971667  0.09740000  1.0
  O2-  O139  1  0.08650000  0.85971667  0.09740000  1.0
  O2-  O140  1  0.70040000  0.25861667  0.41350000  1.0
  O2-  O141  1  0.70040000  0.75861667  0.41350000  1.0
  O2-  O142  1  0.79960000  0.35971667  0.51650000  1.0
  O2-  O143  1  0.79960000  0.85971667  0.51650000  1.0
  O2-  O144  1  0.40260000  0.32471667  0.98350000  1.0
  O2-  O145  1  0.40260000  0.82471667  0.98350000  1.0
  O2-  O146  1  0.09740000  0.22361667  0.08650000  1.0
  O2-  O147  1  0.09740000  0.72361667  0.08650000  1.0
  O2-  O148  1  0.41350000  0.46536667  0.88610000  1.0
  O2-  O149  1  0.41350000  0.96536667  0.88610000  1.0
  O2-  O150  1  0.51650000  0.61796667  0.68390000  1.0
  O2-  O151  1  0.51650000  0.11796667  0.68390000  1.0
  O2-  O152  1  0.98350000  0.31646667  0.61390000  1.0
  O2-  O153  1  0.98350000  0.81646667  0.61390000  1.0
  O2-  O154  1  0.08650000  0.26686667  0.81610000  1.0
  O2-  O155  1  0.08650000  0.76686667  0.81610000  1.0
  O2-  O156  1  0.88610000  0.40841667  0.70040000  1.0
  O2-  O157  1  0.88610000  0.90841667  0.70040000  1.0
  O2-  O158  1  0.68390000  0.45991667  0.79960000  1.0
  O2-  O159  1  0.68390000  0.95991667  0.79960000  1.0
  O2-  O160  1  0.61390000  0.62341667  0.40260000  1.0
  O2-  O161  1  0.61390000  0.12341667  0.40260000  1.0
  O2-  O162  1  0.81610000  0.17491667  0.09740000  1.0
  O2-  O163  1  0.81610000  0.67491667  0.09740000  1.0
  O2-  O164  1  0.29960000  0.57471667  0.58650000  1.0
  O2-  O165  1  0.29960000  0.07471667  0.58650000  1.0
  O2-  O166  1  0.20040000  0.47361667  0.48350000  1.0
  O2-  O167  1  0.20040000  0.97361667  0.48350000  1.0
  O2-  O168  1  0.59740000  0.50861667  0.01650000  1.0
  O2-  O169  1  0.59740000  0.00861667  0.01650000  1.0
  O2-  O170  1  0.90260000  0.60971667  0.91350000  1.0
  O2-  O171  1  0.90260000  0.10971667  0.91350000  1.0
  O2-  O172  1  0.58650000  0.36796667  0.11390000  1.0
  O2-  O173  1  0.58650000  0.86796667  0.11390000  1.0
  O2-  O174  1  0.48350000  0.21536667  0.31610000  1.0
  O2-  O175  1  0.48350000  0.71536667  0.31610000  1.0
  O2-  O176  1  0.01650000  0.51686667  0.38610000  1.0
  O2-  O177  1  0.01650000  0.01686667  0.38610000  1.0
  O2-  O178  1  0.91350000  0.56646667  0.18390000  1.0
  O2-  O179  1  0.91350000  0.06646667  0.18390000  1.0
  O2-  O180  1  0.11390000  0.42491667  0.29960000  1.0
  O2-  O181  1  0.11390000  0.92491667  0.29960000  1.0
  O2-  O182  1  0.31610000  0.37341667  0.20040000  1.0
  O2-  O183  1  0.31610000  0.87341667  0.20040000  1.0
  O2-  O184  1  0.38610000  0.20991667  0.59740000  1.0
  O2-  O185  1  0.38610000  0.70991667  0.59740000  1.0
  O2-  O186  1  0.18390000  0.65841667  0.90260000  1.0
  O2-  O187  1  0.18390000  0.15841667  0.90260000  1.0
