# generated using pymatgen
data_Li13La6Ta(SnO8)3
_symmetry_space_group_name_H-M   'P 1'
_cell_length_a   22.34738718
_cell_length_b   11.17369359
_cell_length_c   11.17369359
_cell_angle_alpha   109.47122063
_cell_angle_beta   109.47122063
_cell_angle_gamma   109.47122063
_symmetry_Int_Tables_number   1
_chemical_formula_structural   Li13La6Ta(SnO8)3
_chemical_formula_sum   'Li52 La24 Ta4 Sn12 O96'
_cell_volume   2147.82245391
_cell_formula_units_Z   4
loop_
 _symmetry_equiv_pos_site_id
 _symmetry_equiv_pos_as_xyz
  1  'x, y, z'
loop_
 _atom_type_symbol
 _atom_type_oxidation_number
  Li+  1.0
  La3+  3.0
  Ta5+  5.0
  Sn4+  4.0
  O2-  -2.0
loop_
 _atom_site_type_symbol
 _atom_site_label
 _atom_site_symmetry_multiplicity
 _atom_site_fract_x
 _atom_site_fract_y
 _atom_site_fract_z
 _atom_site_occupancy
  Li+  Li0  1  0.12250000  0.23200000  0.82900000  1.0
  Li+  Li0  1  0.62250000  0.23200000  0.82900000  1.0
  Li+  Li1  1  0.12750000  0.58400000  0.48700000  1.0
  Li+  Li1  1  0.62750000  0.58400000  0.48700000  1.0
  Li+  Li2  1  0.04200000  0.98700000  0.25500000  1.0
  Li+  Li2  1  0.54200000  0.98700000  0.25500000  1.0
  Li+  Li3  1  0.38400000  0.51300000  0.09700000  1.0
  Li+  Li3  1  0.88400000  0.51300000  0.09700000  1.0
  Li+  Li4  1  0.45150000  0.73200000  0.98700000  1.0
  Li+  Li4  1  0.95150000  0.73200000  0.98700000  1.0
  Li+  Li5  1  0.29850000  0.08400000  0.32900000  1.0
  Li+  Li5  1  0.79850000  0.08400000  0.32900000  1.0
  Li+  Li6  1  0.37250000  0.41600000  0.51300000  1.0
  Li+  Li6  1  0.87250000  0.41600000  0.51300000  1.0
  Li+  Li7  1  0.08550000  0.25500000  0.26800000  1.0
  Li+  Li7  1  0.58550000  0.25500000  0.26800000  1.0
  Li+  Li8  1  0.45800000  0.01300000  0.74500000  1.0
  Li+  Li8  1  0.95800000  0.01300000  0.74500000  1.0
  Li+  Li9  1  0.11600000  0.48700000  0.90300000  1.0
  Li+  Li9  1  0.61600000  0.48700000  0.90300000  1.0
  Li+  Li10  1  0.29200000  0.25500000  0.98700000  1.0
  Li+  Li10  1  0.79200000  0.25500000  0.98700000  1.0
  Li+  Li11  1  0.13400000  0.09700000  0.51300000  1.0
  Li+  Li11  1  0.63400000  0.09700000  0.51300000  1.0
  Li+  Li12  1  0.16450000  0.73200000  0.74500000  1.0
  Li+  Li12  1  0.66450000  0.73200000  0.74500000  1.0
  Li+  Li13  1  0.49350000  0.08400000  0.75500000  1.0
  Li+  Li13  1  0.99350000  0.08400000  0.75500000  1.0
  Li+  Li14  1  0.04200000  0.59700000  0.82900000  1.0
  Li+  Li14  1  0.54200000  0.59700000  0.82900000  1.0
  Li+  Li15  1  0.36600000  0.90300000  0.48700000  1.0
  Li+  Li15  1  0.86600000  0.90300000  0.48700000  1.0
  Li+  Li16  1  0.04850000  0.32900000  0.08400000  1.0
  Li+  Li16  1  0.54850000  0.32900000  0.08400000  1.0
  Li+  Li17  1  0.33550000  0.26800000  0.25500000  1.0
  Li+  Li17  1  0.83550000  0.26800000  0.25500000  1.0
  Li+  Li18  1  0.41450000  0.58400000  0.09700000  1.0
  Li+  Li18  1  0.91450000  0.58400000  0.09700000  1.0
  Li+  Li19  1  0.37500000  0.37500000  0.12500000  1.0
  Li+  Li19  1  0.87500000  0.37500000  0.12500000  1.0
  Li+  Li20  1  0.18750000  0.75000000  0.62500000  1.0
  Li+  Li20  1  0.68750000  0.75000000  0.62500000  1.0
  Li+  Li21  1  0.31250000  0.87500000  0.25000000  1.0
  Li+  Li21  1  0.81250000  0.87500000  0.25000000  1.0
  Li+  Li22  1  0.43750000  0.62500000  0.75000000  1.0
  Li+  Li22  1  0.93750000  0.62500000  0.75000000  1.0
  Li+  Li23  1  0.37500000  0.87500000  0.62500000  1.0
  Li+  Li23  1  0.87500000  0.87500000  0.62500000  1.0
  Li+  Li24  1  0.31250000  0.25000000  0.37500000  1.0
  Li+  Li24  1  0.81250000  0.25000000  0.37500000  1.0
  Li+  Li25  1  0.18750000  0.12500000  0.75000000  1.0
  Li+  Li25  1  0.68750000  0.12500000  0.75000000  1.0
  La3+  La1  1  0.37500000  0.62500000  0.37500000  1.0
  La3+  La1  1  0.87500000  0.62500000  0.37500000  1.0
  La3+  La1  1  0.12500000  0.87500000  0.12500000  1.0
  La3+  La1  1  0.62500000  0.87500000  0.12500000  1.0
  La3+  La1  1  0.06250000  0.75000000  0.37500000  1.0
  La3+  La1  1  0.56250000  0.75000000  0.37500000  1.0
  La3+  La1  1  0.18750000  0.25000000  0.12500000  1.0
  La3+  La1  1  0.68750000  0.25000000  0.12500000  1.0
  La3+  La1  1  0.18750000  0.62500000  0.25000000  1.0
  La3+  La1  1  0.68750000  0.62500000  0.25000000  1.0
  La3+  La1  1  0.06250000  0.87500000  0.75000000  1.0
  La3+  La1  1  0.56250000  0.87500000  0.75000000  1.0
  La3+  La1  1  0.12500000  0.37500000  0.62500000  1.0
  La3+  La1  1  0.62500000  0.37500000  0.62500000  1.0
  La3+  La1  1  0.37500000  0.12500000  0.87500000  1.0
  La3+  La1  1  0.87500000  0.12500000  0.87500000  1.0
  La3+  La1  1  0.43750000  0.25000000  0.62500000  1.0
  La3+  La1  1  0.93750000  0.25000000  0.62500000  1.0
  La3+  La1  1  0.31250000  0.75000000  0.87500000  1.0
  La3+  La1  1  0.81250000  0.75000000  0.87500000  1.0
  La3+  La1  1  0.31250000  0.37500000  0.75000000  1.0
  La3+  La1  1  0.81250000  0.37500000  0.75000000  1.0
  La3+  La1  1  0.43750000  0.12500000  0.25000000  1.0
  La3+  La1  1  0.93750000  0.12500000  0.25000000  1.0
  Ta5+  Ta38  1  0.00000000  0.00000000  0.50000000  1.0
  Ta5+  Ta38  1  0.50000000  0.00000000  0.50000000  1.0
  Ta5+  Ta39  1  0.00000000  0.50000000  0.50000000  1.0
  Ta5+  Ta39  1  0.50000000  0.50000000  0.50000000  1.0
  Sn4+  Sn40  1  0.25000000  0.50000000  0.50000000  1.0
  Sn4+  Sn40  1  0.75000000  0.50000000  0.50000000  1.0
  Sn4+  Sn41  1  0.00000000  0.50000000  0.00000000  1.0
  Sn4+  Sn41  1  0.50000000  0.50000000  0.00000000  1.0
  Sn4+  Sn42  1  0.25000000  0.00000000  0.00000000  1.0
  Sn4+  Sn42  1  0.75000000  0.00000000  0.00000000  1.0
  Sn4+  Sn43  1  0.25000000  0.00000000  0.50000000  1.0
  Sn4+  Sn43  1  0.75000000  0.00000000  0.50000000  1.0
  Sn4+  Sn44  1  0.25000000  0.50000000  0.00000000  1.0
  Sn4+  Sn44  1  0.75000000  0.50000000  0.00000000  1.0
  Sn4+  Sn45  1  0.00000000  0.00000000  0.00000000  1.0
  Sn4+  Sn45  1  0.50000000  0.00000000  0.00000000  1.0
  O2-  O1  1  0.45130000  0.88610000  0.58650000  1.0
  O2-  O1  1  0.95130000  0.88610000  0.58650000  1.0
  O2-  O1  1  0.29870000  0.68390000  0.48350000  1.0
  O2-  O1  1  0.79870000  0.68390000  0.48350000  1.0
  O2-  O1  1  0.10020000  0.61390000  0.01650000  1.0
  O2-  O1  1  0.60020000  0.61390000  0.01650000  1.0
  O2-  O1  1  0.14980000  0.81610000  0.91350000  1.0
  O2-  O1  1  0.64980000  0.81610000  0.91350000  1.0
  O2-  O1  1  0.00825000  0.70040000  0.11390000  1.0
  O2-  O1  1  0.50825000  0.70040000  0.11390000  1.0
  O2-  O1  1  0.45675000  0.79960000  0.31610000  1.0
  O2-  O1  1  0.95675000  0.79960000  0.31610000  1.0
  O2-  O1  1  0.29325000  0.40260000  0.38610000  1.0
  O2-  O1  1  0.79325000  0.40260000  0.38610000  1.0
  O2-  O1  1  0.24175000  0.09740000  0.18390000  1.0
  O2-  O1  1  0.74175000  0.09740000  0.18390000  1.0
  O2-  O1  1  0.15805000  0.41350000  0.29960000  1.0
  O2-  O1  1  0.65805000  0.41350000  0.29960000  1.0
  O2-  O1  1  0.05695000  0.51650000  0.20040000  1.0
  O2-  O1  1  0.55695000  0.51650000  0.20040000  1.0
  O2-  O1  1  0.09195000  0.98350000  0.59740000  1.0
  O2-  O1  1  0.59195000  0.98350000  0.59740000  1.0
  O2-  O1  1  0.19305000  0.08650000  0.90260000  1.0
  O2-  O1  1  0.69305000  0.08650000  0.90260000  1.0
  O2-  O1  1  0.04870000  0.11390000  0.41350000  1.0
  O2-  O1  1  0.54870000  0.11390000  0.41350000  1.0
  O2-  O1  1  0.20130000  0.31610000  0.51650000  1.0
  O2-  O1  1  0.70130000  0.31610000  0.51650000  1.0
  O2-  O1  1  0.39980000  0.38610000  0.98350000  1.0
  O2-  O1  1  0.89980000  0.38610000  0.98350000  1.0
  O2-  O1  1  0.35020000  0.18390000  0.08650000  1.0
  O2-  O1  1  0.85020000  0.18390000  0.08650000  1.0
  O2-  O1  1  0.49175000  0.29960000  0.88610000  1.0
  O2-  O1  1  0.99175000  0.29960000  0.88610000  1.0
  O2-  O1  1  0.04325000  0.20040000  0.68390000  1.0
  O2-  O1  1  0.54325000  0.20040000  0.68390000  1.0
  O2-  O1  1  0.20675000  0.59740000  0.61390000  1.0
  O2-  O1  1  0.70675000  0.59740000  0.61390000  1.0
  O2-  O1  1  0.25825000  0.90260000  0.81610000  1.0
  O2-  O1  1  0.75825000  0.90260000  0.81610000  1.0
  O2-  O1  1  0.34195000  0.58650000  0.70040000  1.0
  O2-  O1  1  0.84195000  0.58650000  0.70040000  1.0
  O2-  O1  1  0.44305000  0.48350000  0.79960000  1.0
  O2-  O1  1  0.94305000  0.48350000  0.79960000  1.0
  O2-  O1  1  0.40805000  0.01650000  0.40260000  1.0
  O2-  O1  1  0.90805000  0.01650000  0.40260000  1.0
  O2-  O1  1  0.30695000  0.91350000  0.09740000  1.0
  O2-  O1  1  0.80695000  0.91350000  0.09740000  1.0
  O2-  O1  1  0.40805000  0.29960000  0.41350000  1.0
  O2-  O1  1  0.90805000  0.29960000  0.41350000  1.0
  O2-  O1  1  0.30695000  0.20040000  0.51650000  1.0
  O2-  O1  1  0.80695000  0.20040000  0.51650000  1.0
  O2-  O1  1  0.34195000  0.59740000  0.98350000  1.0
  O2-  O1  1  0.84195000  0.59740000  0.98350000  1.0
  O2-  O1  1  0.44305000  0.90260000  0.08650000  1.0
  O2-  O1  1  0.94305000  0.90260000  0.08650000  1.0
  O2-  O1  1  0.20130000  0.58650000  0.88610000  1.0
  O2-  O1  1  0.70130000  0.58650000  0.88610000  1.0
  O2-  O1  1  0.04870000  0.48350000  0.68390000  1.0
  O2-  O1  1  0.54870000  0.48350000  0.68390000  1.0
  O2-  O1  1  0.35020000  0.01650000  0.61390000  1.0
  O2-  O1  1  0.85020000  0.01650000  0.61390000  1.0
  O2-  O1  1  0.39980000  0.91350000  0.81610000  1.0
  O2-  O1  1  0.89980000  0.91350000  0.81610000  1.0
  O2-  O1  1  0.25825000  0.11390000  0.70040000  1.0
  O2-  O1  1  0.75825000  0.11390000  0.70040000  1.0
  O2-  O1  1  0.20675000  0.31610000  0.79960000  1.0
  O2-  O1  1  0.70675000  0.31610000  0.79960000  1.0
  O2-  O1  1  0.04325000  0.38610000  0.40260000  1.0
  O2-  O1  1  0.54325000  0.38610000  0.40260000  1.0
  O2-  O1  1  0.49175000  0.18390000  0.09740000  1.0
  O2-  O1  1  0.99175000  0.18390000  0.09740000  1.0
  O2-  O1  1  0.09195000  0.70040000  0.58650000  1.0
  O2-  O1  1  0.59195000  0.70040000  0.58650000  1.0
  O2-  O1  1  0.19305000  0.79960000  0.48350000  1.0
  O2-  O1  1  0.69305000  0.79960000  0.48350000  1.0
  O2-  O1  1  0.15805000  0.40260000  0.01650000  1.0
  O2-  O1  1  0.65805000  0.40260000  0.01650000  1.0
  O2-  O1  1  0.05695000  0.09740000  0.91350000  1.0
  O2-  O1  1  0.55695000  0.09740000  0.91350000  1.0
  O2-  O1  1  0.29870000  0.41350000  0.11390000  1.0
  O2-  O1  1  0.79870000  0.41350000  0.11390000  1.0
  O2-  O1  1  0.45130000  0.51650000  0.31610000  1.0
  O2-  O1  1  0.95130000  0.51650000  0.31610000  1.0
  O2-  O1  1  0.14980000  0.98350000  0.38610000  1.0
  O2-  O1  1  0.64980000  0.98350000  0.38610000  1.0
  O2-  O1  1  0.10020000  0.08650000  0.18390000  1.0
  O2-  O1  1  0.60020000  0.08650000  0.18390000  1.0
  O2-  O1  1  0.24175000  0.88610000  0.29960000  1.0
  O2-  O1  1  0.74175000  0.88610000  0.29960000  1.0
  O2-  O1  1  0.29325000  0.68390000  0.20040000  1.0
  O2-  O1  1  0.79325000  0.68390000  0.20040000  1.0
  O2-  O1  1  0.45675000  0.61390000  0.59740000  1.0
  O2-  O1  1  0.95675000  0.61390000  0.59740000  1.0
  O2-  O1  1  0.00825000  0.81610000  0.90260000  1.0
  O2-  O1  1  0.50825000  0.81610000  0.90260000  1.0
