# generated using pymatgen
data_Li2PS3
_symmetry_space_group_name_H-M   'P 1'
_cell_length_a   24.30960000
_cell_length_b   13.19760000
_cell_length_c   12.15480000
_cell_angle_alpha   90.00000000
_cell_angle_beta   60.00000000
_cell_angle_gamma   90.00000000
_symmetry_Int_Tables_number   1
_chemical_formula_structural   Li2PS3
_chemical_formula_sum   'Li64 P32 S96'
_cell_volume   3377.15678365
_cell_formula_units_Z   32
loop_
 _symmetry_equiv_pos_site_id
 _symmetry_equiv_pos_as_xyz
  1  'x, y, z'
loop_
 _atom_type_symbol
 _atom_type_oxidation_number
  Li+  1.0
  P3+  3.0
  S1.7-  -1.7
loop_
 _atom_site_type_symbol
 _atom_site_label
 _atom_site_symmetry_multiplicity
 _atom_site_fract_x
 _atom_site_fract_y
 _atom_site_fract_z
 _atom_site_occupancy
  Li+  Li0  1  0.16666667  0.00000000  0.58333333  1.0
  Li+  Li1  1  0.66666667  0.00000000  0.58333333  1.0
  Li+  Li2  1  0.16666667  0.50000000  0.58333333  1.0
  Li+  Li3  1  0.66666667  0.50000000  0.58333333  1.0
  Li+  Li4  1  0.16611423  0.99732593  0.08673672  1.0
  Li+  Li5  1  0.66666667  0.00000000  0.08333333  1.0
  Li+  Li6  1  0.16666667  0.50000000  0.08333333  1.0
  Li+  Li7  1  0.66666667  0.50000000  0.08333333  1.0
  Li+  Li8  1  0.41666666  0.00000000  0.58333333  1.0
  Li+  Li9  1  0.91666667  0.00000000  0.58333333  1.0
  Li+  Li10  1  0.41666666  0.50000000  0.58333333  1.0
  Li+  Li11  1  0.91620252  0.49974378  0.58241256  1.0
  Li+  Li12  1  0.41666666  0.00000000  0.08333333  1.0
  Li+  Li13  1  0.91279258  0.99974401  0.07999669  1.0
  Li+  Li14  1  0.41666666  0.50000000  0.08333333  1.0
  Li+  Li15  1  0.91666666  0.50000000  0.08333333  1.0
  Li+  Li16  1  0.08333333  0.00000000  0.41666667  1.0
  Li+  Li17  1  0.58427591  0.99672569  0.41502845  1.0
  Li+  Li18  1  0.08333333  0.50000000  0.41666667  1.0
  Li+  Li19  1  0.58383357  0.50271206  0.41431532  1.0
  Li+  Li20  1  0.08333333  0.00000000  0.91666667  1.0
  Li+  Li21  1  0.58333334  0.00000000  0.91666667  1.0
  Li+  Li22  1  0.08333333  0.50000000  0.91666667  1.0
  Li+  Li23  1  0.58333334  0.50000000  0.91666667  1.0
  Li+  Li24  1  0.33753544  0.00222364  0.41636410  1.0
  Li+  Li25  1  0.83549247  0.00114151  0.41319903  1.0
  Li+  Li26  1  0.33052527  0.49802772  0.41883044  1.0
  Li+  Li27  1  0.83333333  0.50000000  0.41666667  1.0
  Li+  Li28  1  0.33333333  0.00000000  0.91666667  1.0
  Li+  Li29  1  0.83333333  0.00000000  0.91666667  1.0
  Li+  Li30  1  0.33333333  0.50000000  0.91666667  1.0
  Li+  Li31  1  0.83204761  0.50158470  0.91441714  1.0
  Li+  Li32  1  0.08210090  0.75331395  0.41462850  1.0
  Li+  Li33  1  0.58160280  0.74859843  0.41173853  1.0
  Li+  Li34  1  0.08103450  0.24397895  0.41226129  1.0
  Li+  Li35  1  0.58333333  0.25000000  0.41666667  1.0
  Li+  Li36  1  0.08333333  0.75000000  0.91666667  1.0
  Li+  Li37  1  0.58333334  0.75000000  0.91666667  1.0
  Li+  Li38  1  0.08333333  0.25000000  0.91666667  1.0
  Li+  Li39  1  0.58333334  0.25000000  0.91666667  1.0
  Li+  Li40  1  0.34189754  0.74939422  0.41678346  1.0
  Li+  Li41  1  0.83367205  0.75019319  0.41861990  1.0
  Li+  Li42  1  0.33333333  0.25000000  0.41666667  1.0
  Li+  Li43  1  0.83333333  0.25000000  0.41666667  1.0
  Li+  Li44  1  0.33333333  0.75000000  0.91666667  1.0
  Li+  Li45  1  0.83333333  0.75000000  0.91666667  1.0
  Li+  Li46  1  0.33015641  0.25064525  0.91369982  1.0
  Li+  Li47  1  0.83333333  0.25000000  0.91666667  1.0
  Li+  Li48  1  0.16666667  0.75000000  0.58333333  1.0
  Li+  Li49  1  0.66666667  0.75000000  0.58333333  1.0
  Li+  Li50  1  0.16666667  0.25000000  0.58333333  1.0
  Li+  Li51  1  0.66617987  0.25506872  0.58280594  1.0
  Li+  Li52  1  0.16666667  0.75000000  0.08333333  1.0
  Li+  Li53  1  0.66666667  0.75000000  0.08333333  1.0
  Li+  Li54  1  0.16666667  0.25000000  0.08333333  1.0
  Li+  Li55  1  0.66666667  0.25000000  0.08333333  1.0
  Li+  Li56  1  0.41666666  0.75000000  0.58333333  1.0
  Li+  Li57  1  0.91666667  0.75000000  0.58333333  1.0
  Li+  Li58  1  0.41666666  0.25000000  0.58333333  1.0
  Li+  Li59  1  0.91666667  0.25000000  0.58333333  1.0
  Li+  Li60  1  0.41666666  0.75000000  0.08333333  1.0
  Li+  Li61  1  0.91666666  0.75000000  0.08333333  1.0
  Li+  Li62  1  0.41666666  0.25000000  0.08333333  1.0
  Li+  Li63  1  0.91666666  0.25000000  0.08333333  1.0
  P3+  P64  1  0.99941304  0.91702885  0.74821013  1.0
  P3+  P65  1  0.50003829  0.91611270  0.75098983  1.0
  P3+  P66  1  0.00076739  0.41507170  0.75294212  1.0
  P3+  P67  1  0.50058958  0.42013614  0.75092789  1.0
  P3+  P68  1  0.00000000  0.91750000  0.25000000  1.0
  P3+  P69  1  0.50000000  0.91750000  0.25000000  1.0
  P3+  P70  1  0.00000000  0.41750000  0.25000000  1.0
  P3+  P71  1  0.50000000  0.41750000  0.25000000  1.0
  P3+  P72  1  0.25000000  0.91750000  0.75000000  1.0
  P3+  P73  1  0.75000000  0.91750000  0.75000000  1.0
  P3+  P74  1  0.25000000  0.41750000  0.75000000  1.0
  P3+  P75  1  0.75000000  0.41750000  0.75000000  1.0
  P3+  P76  1  0.24759230  0.91570001  0.24998028  1.0
  P3+  P77  1  0.75000000  0.91750000  0.25000000  1.0
  P3+  P78  1  0.25014800  0.41829538  0.25226791  1.0
  P3+  P79  1  0.75000000  0.41750000  0.25000000  1.0
  P3+  P80  1  0.99522717  0.58365320  0.74936339  1.0
  P3+  P81  1  0.50000000  0.58250000  0.75000000  1.0
  P3+  P82  1  0.00000000  0.08250000  0.75000000  1.0
  P3+  P83  1  0.50305169  0.08049516  0.75230880  1.0
  P3+  P84  1  0.00000000  0.58250000  0.25000000  1.0
  P3+  P85  1  0.50000000  0.58250000  0.25000000  1.0
  P3+  P86  1  0.00000000  0.08250000  0.25000000  1.0
  P3+  P87  1  0.50000000  0.08250000  0.25000000  1.0
  P3+  P88  1  0.25000000  0.58250000  0.75000000  1.0
  P3+  P89  1  0.75000000  0.58250000  0.75000000  1.0
  P3+  P90  1  0.25000000  0.08250000  0.75000000  1.0
  P3+  P91  1  0.75000000  0.08250000  0.75000000  1.0
  P3+  P92  1  0.25000000  0.58250000  0.25000000  1.0
  P3+  P93  1  0.75000000  0.58250000  0.25000000  1.0
  P3+  P94  1  0.25000000  0.08250000  0.25000000  1.0
  P3+  P95  1  0.75000000  0.08250000  0.25000000  1.0
  S1.7-  S96  1  0.08018306  0.87743327  0.58697070  1.0
  S1.7-  S97  1  0.58062500  0.87615000  0.58875000  1.0
  S1.7-  S98  1  0.08062500  0.37615000  0.58875000  1.0
  S1.7-  S99  1  0.58062500  0.37615000  0.58875000  1.0
  S1.7-  S100  1  0.08062500  0.87615000  0.08875000  1.0
  S1.7-  S101  1  0.57880955  0.87408969  0.08772165  1.0
  S1.7-  S102  1  0.08062500  0.37615000  0.08875000  1.0
  S1.7-  S103  1  0.58062500  0.37615000  0.08875000  1.0
  S1.7-  S104  1  0.32998957  0.87491981  0.58513961  1.0
  S1.7-  S105  1  0.83096771  0.87651520  0.59037043  1.0
  S1.7-  S106  1  0.33205197  0.37352794  0.58634050  1.0
  S1.7-  S107  1  0.83062500  0.37615000  0.58875000  1.0
  S1.7-  S108  1  0.33062500  0.87615000  0.08875000  1.0
  S1.7-  S109  1  0.83062500  0.87615000  0.08875000  1.0
  S1.7-  S110  1  0.33062500  0.37615000  0.08875000  1.0
  S1.7-  S111  1  0.83062500  0.37615000  0.08875000  1.0
  S1.7-  S112  1  0.16937500  0.87615000  0.25000000  1.0
  S1.7-  S113  1  0.66937500  0.87615000  0.25000000  1.0
  S1.7-  S114  1  0.16937500  0.37615000  0.25000000  1.0
  S1.7-  S115  1  0.66937500  0.37615000  0.25000000  1.0
  S1.7-  S116  1  0.16937500  0.87615000  0.75000000  1.0
  S1.7-  S117  1  0.66948324  0.87448876  0.74869443  1.0
  S1.7-  S118  1  0.16937500  0.37615000  0.75000000  1.0
  S1.7-  S119  1  0.66937500  0.37615000  0.75000000  1.0
  S1.7-  S120  1  0.41937500  0.87615000  0.25000000  1.0
  S1.7-  S121  1  0.91937500  0.87615000  0.25000000  1.0
  S1.7-  S122  1  0.42222557  0.36858272  0.25088403  1.0
  S1.7-  S123  1  0.91937500  0.37615000  0.25000000  1.0
  S1.7-  S124  1  0.41937500  0.87615000  0.75000000  1.0
  S1.7-  S125  1  0.91937500  0.87615000  0.75000000  1.0
  S1.7-  S126  1  0.41937500  0.37615000  0.75000000  1.0
  S1.7-  S127  1  0.91818833  0.37090646  0.75041287  1.0
  S1.7-  S128  1  0.00000000  0.87615000  0.41125000  1.0
  S1.7-  S129  1  0.50717144  0.87254082  0.40945227  1.0
  S1.7-  S130  1  0.99818318  0.38017620  0.40848528  1.0
  S1.7-  S131  1  0.50000000  0.37615000  0.41125000  1.0
  S1.7-  S132  1  0.00000000  0.87615000  0.91125000  1.0
  S1.7-  S133  1  0.50000000  0.87615000  0.91125000  1.0
  S1.7-  S134  1  0.00000000  0.37615000  0.91125000  1.0
  S1.7-  S135  1  0.49729648  0.37421147  0.91099448  1.0
  S1.7-  S136  1  0.24808487  0.87316782  0.41071134  1.0
  S1.7-  S137  1  0.75000000  0.87615000  0.41125000  1.0
  S1.7-  S138  1  0.25000000  0.37615000  0.41125000  1.0
  S1.7-  S139  1  0.75000000  0.37615000  0.41125000  1.0
  S1.7-  S140  1  0.25000000  0.87615000  0.91125000  1.0
  S1.7-  S141  1  0.75110791  0.88409134  0.91481093  1.0
  S1.7-  S142  1  0.25000000  0.37615000  0.91125000  1.0
  S1.7-  S143  1  0.75000000  0.37615000  0.91125000  1.0
  S1.7-  S144  1  0.16937500  0.62385000  0.41125000  1.0
  S1.7-  S145  1  0.66774067  0.61877888  0.40943797  1.0
  S1.7-  S146  1  0.16937500  0.12385000  0.41125000  1.0
  S1.7-  S147  1  0.67279770  0.12491038  0.41219830  1.0
  S1.7-  S148  1  0.16937500  0.62385000  0.91125000  1.0
  S1.7-  S149  1  0.67479868  0.62213032  0.91185326  1.0
  S1.7-  S150  1  0.16937500  0.12385000  0.91125000  1.0
  S1.7-  S151  1  0.66937500  0.12385000  0.91125000  1.0
  S1.7-  S152  1  0.41937500  0.62385000  0.41125000  1.0
  S1.7-  S153  1  0.91937500  0.62385000  0.41125000  1.0
  S1.7-  S154  1  0.41937500  0.12385000  0.41125000  1.0
  S1.7-  S155  1  0.91937500  0.12385000  0.41125000  1.0
  S1.7-  S156  1  0.41937500  0.62385000  0.91125000  1.0
  S1.7-  S157  1  0.91937500  0.62385000  0.91125000  1.0
  S1.7-  S158  1  0.41937500  0.12385000  0.91125000  1.0
  S1.7-  S159  1  0.91937500  0.12385000  0.91125000  1.0
  S1.7-  S160  1  0.08338407  0.62448358  0.74807165  1.0
  S1.7-  S161  1  0.58062500  0.62385000  0.75000000  1.0
  S1.7-  S162  1  0.08062500  0.12385000  0.75000000  1.0
  S1.7-  S163  1  0.58085848  0.12395491  0.75264985  1.0
  S1.7-  S164  1  0.08062500  0.62385000  0.25000000  1.0
  S1.7-  S165  1  0.58062500  0.62385000  0.25000000  1.0
  S1.7-  S166  1  0.08062500  0.12385000  0.25000000  1.0
  S1.7-  S167  1  0.58062500  0.12385000  0.25000000  1.0
  S1.7-  S168  1  0.33062500  0.62385000  0.75000000  1.0
  S1.7-  S169  1  0.83043363  0.62556477  0.74760618  1.0
  S1.7-  S170  1  0.33062500  0.12385000  0.75000000  1.0
  S1.7-  S171  1  0.83062500  0.12385000  0.75000000  1.0
  S1.7-  S172  1  0.32980164  0.62684168  0.25248173  1.0
  S1.7-  S173  1  0.83062500  0.62385000  0.25000000  1.0
  S1.7-  S174  1  0.33062500  0.12385000  0.25000000  1.0
  S1.7-  S175  1  0.83062500  0.12385000  0.25000000  1.0
  S1.7-  S176  1  0.00000000  0.62385000  0.58875000  1.0
  S1.7-  S177  1  0.50000000  0.62385000  0.58875000  1.0
  S1.7-  S178  1  0.99932448  0.12558530  0.58867599  1.0
  S1.7-  S179  1  0.50000000  0.12385000  0.58875000  1.0
  S1.7-  S180  1  0.00000000  0.62385000  0.08875000  1.0
  S1.7-  S181  1  0.50000000  0.62385000  0.08875000  1.0
  S1.7-  S182  1  0.00000000  0.12385000  0.08875000  1.0
  S1.7-  S183  1  0.50000000  0.12385000  0.08875000  1.0
  S1.7-  S184  1  0.25000000  0.62385000  0.58875000  1.0
  S1.7-  S185  1  0.75000000  0.62385000  0.58875000  1.0
  S1.7-  S186  1  0.25028159  0.12494256  0.59052803  1.0
  S1.7-  S187  1  0.75000000  0.12385000  0.58875000  1.0
  S1.7-  S188  1  0.25032023  0.62518891  0.09013255  1.0
  S1.7-  S189  1  0.75020976  0.62175983  0.08823745  1.0
  S1.7-  S190  1  0.25000000  0.12385000  0.08875000  1.0
  S1.7-  S191  1  0.75000000  0.12385000  0.08875000  1.0
