# generated using pymatgen
data_Li2PS3
_symmetry_space_group_name_H-M   'P 1'
_cell_length_a   12.24366647
_cell_length_b   24.48733293
_cell_length_c   13.29409061
_cell_angle_alpha   90.00000000
_cell_angle_beta   90.00000000
_cell_angle_gamma   120.00000000
_symmetry_Int_Tables_number   1
_chemical_formula_structural   Li2PS3
_chemical_formula_sum   'Li64 P32 S96'
_cell_volume   3451.77312143
_cell_formula_units_Z   32
loop_
 _symmetry_equiv_pos_site_id
 _symmetry_equiv_pos_as_xyz
  1  'x, y, z'
loop_
 _atom_type_symbol
 _atom_type_oxidation_number
  Li+  1.0
  P3+  3.0
  S1.7-  -1.7
loop_
 _atom_site_type_symbol
 _atom_site_label
 _atom_site_symmetry_multiplicity
 _atom_site_fract_x
 _atom_site_fract_y
 _atom_site_fract_z
 _atom_site_occupancy
  Li+  Li0  1  0.83333333  0.50000000  0.00000000  1.0
  Li+  Li1  1  0.83333333  0.00000000  0.00000000  1.0
  Li+  Li2  1  0.83333333  0.50000000  0.50000000  1.0
  Li+  Li3  1  0.83333333  0.00000000  0.50000000  1.0
  Li+  Li4  1  0.33333333  0.50000000  0.00000000  1.0
  Li+  Li5  1  0.33333333  0.00000000  0.00000000  1.0
  Li+  Li6  1  0.33333333  0.50000000  0.50000000  1.0
  Li+  Li7  1  0.33333333  0.00000000  0.50000000  1.0
  Li+  Li8  1  0.83333333  0.25000000  0.00000000  1.0
  Li+  Li9  1  0.83333333  0.75000000  0.00000000  1.0
  Li+  Li10  1  0.83333333  0.25000000  0.50000000  1.0
  Li+  Li11  1  0.83333333  0.75000000  0.50000000  1.0
  Li+  Li12  1  0.33333333  0.25000000  0.00000000  1.0
  Li+  Li13  1  0.33333333  0.75000000  0.00000000  1.0
  Li+  Li14  1  0.33333333  0.25000000  0.50000000  1.0
  Li+  Li15  1  0.33333333  0.75000000  0.50000000  1.0
  Li+  Li16  1  0.66666667  0.58333333  0.00000000  1.0
  Li+  Li17  1  0.66666667  0.08333333  0.00000000  1.0
  Li+  Li18  1  0.66666667  0.58333333  0.50000000  1.0
  Li+  Li19  1  0.66666667  0.08333333  0.50000000  1.0
  Li+  Li20  1  0.16666667  0.58333333  0.00000000  1.0
  Li+  Li21  1  0.16666667  0.08333333  0.00000000  1.0
  Li+  Li22  1  0.16666667  0.58333333  0.50000000  1.0
  Li+  Li23  1  0.16666667  0.08333333  0.50000000  1.0
  Li+  Li24  1  0.66666667  0.33333333  0.00000000  1.0
  Li+  Li25  1  0.66666667  0.83333333  0.00000000  1.0
  Li+  Li26  1  0.66666667  0.33333333  0.50000000  1.0
  Li+  Li27  1  0.66666667  0.83333333  0.50000000  1.0
  Li+  Li28  1  0.16666667  0.33333333  0.00000000  1.0
  Li+  Li29  1  0.16666667  0.83333333  0.00000000  1.0
  Li+  Li30  1  0.16666667  0.33333333  0.50000000  1.0
  Li+  Li31  1  0.16666667  0.83333333  0.50000000  1.0
  Li+  Li32  1  0.66666667  0.58333333  0.25000000  1.0
  Li+  Li33  1  0.66666667  0.08333333  0.25000000  1.0
  Li+  Li34  1  0.66666667  0.58333333  0.75000000  1.0
  Li+  Li35  1  0.66666667  0.08333333  0.75000000  1.0
  Li+  Li36  1  0.16666667  0.58333333  0.25000000  1.0
  Li+  Li37  1  0.16666667  0.08333333  0.25000000  1.0
  Li+  Li38  1  0.16666667  0.58333333  0.75000000  1.0
  Li+  Li39  1  0.16666667  0.08333333  0.75000000  1.0
  Li+  Li40  1  0.66666667  0.33333333  0.25000000  1.0
  Li+  Li41  1  0.66666667  0.83333333  0.25000000  1.0
  Li+  Li42  1  0.66666667  0.33333333  0.75000000  1.0
  Li+  Li43  1  0.66666667  0.83333333  0.75000000  1.0
  Li+  Li44  1  0.16666667  0.33333333  0.25000000  1.0
  Li+  Li45  1  0.16666667  0.83333333  0.25000000  1.0
  Li+  Li46  1  0.16666667  0.33333333  0.75000000  1.0
  Li+  Li47  1  0.16666667  0.83333333  0.75000000  1.0
  Li+  Li48  1  0.83333333  0.50000000  0.25000000  1.0
  Li+  Li49  1  0.83333333  0.00000000  0.25000000  1.0
  Li+  Li50  1  0.83333333  0.50000000  0.75000000  1.0
  Li+  Li51  1  0.83333333  0.00000000  0.75000000  1.0
  Li+  Li52  1  0.33333333  0.50000000  0.25000000  1.0
  Li+  Li53  1  0.33333333  0.00000000  0.25000000  1.0
  Li+  Li54  1  0.33333333  0.50000000  0.75000000  1.0
  Li+  Li55  1  0.33333333  0.00000000  0.75000000  1.0
  Li+  Li56  1  0.83333333  0.25000000  0.25000000  1.0
  Li+  Li57  1  0.83333333  0.75000000  0.25000000  1.0
  Li+  Li58  1  0.83333333  0.25000000  0.75000000  1.0
  Li+  Li59  1  0.83333333  0.75000000  0.75000000  1.0
  Li+  Li60  1  0.33333333  0.25000000  0.25000000  1.0
  Li+  Li61  1  0.33333333  0.75000000  0.25000000  1.0
  Li+  Li62  1  0.33333333  0.25000000  0.75000000  1.0
  Li+  Li63  1  0.33333333  0.75000000  0.75000000  1.0
  P3+  P64  1  0.00000000  0.66666667  0.08250000  1.0
  P3+  P65  1  0.00000000  0.16666667  0.08250000  1.0
  P3+  P66  1  0.00000000  0.66666667  0.58250000  1.0
  P3+  P67  1  0.00000000  0.16666667  0.58250000  1.0
  P3+  P68  1  0.50000000  0.66666667  0.08250000  1.0
  P3+  P69  1  0.50000000  0.16666667  0.08250000  1.0
  P3+  P70  1  0.50000000  0.66666667  0.58250000  1.0
  P3+  P71  1  0.50000000  0.16666667  0.58250000  1.0
  P3+  P72  1  0.00000000  0.41666667  0.08250000  1.0
  P3+  P73  1  0.00000000  0.91666667  0.08250000  1.0
  P3+  P74  1  0.00000000  0.41666667  0.58250000  1.0
  P3+  P75  1  0.00000000  0.91666667  0.58250000  1.0
  P3+  P76  1  0.50000000  0.41666667  0.08250000  1.0
  P3+  P77  1  0.50000000  0.91666667  0.08250000  1.0
  P3+  P78  1  0.50000000  0.41666667  0.58250000  1.0
  P3+  P79  1  0.50000000  0.91666667  0.58250000  1.0
  P3+  P80  1  0.00000000  0.66666667  0.41750000  1.0
  P3+  P81  1  0.00000000  0.16666667  0.41750000  1.0
  P3+  P82  1  0.00000000  0.66666667  0.91750000  1.0
  P3+  P83  1  0.00000000  0.16666667  0.91750000  1.0
  P3+  P84  1  0.50000000  0.66666667  0.41750000  1.0
  P3+  P85  1  0.50000000  0.16666667  0.41750000  1.0
  P3+  P86  1  0.50000000  0.66666667  0.91750000  1.0
  P3+  P87  1  0.50000000  0.16666667  0.91750000  1.0
  P3+  P88  1  0.00000000  0.41666667  0.41750000  1.0
  P3+  P89  1  0.00000000  0.91666667  0.41750000  1.0
  P3+  P90  1  0.00000000  0.41666667  0.91750000  1.0
  P3+  P91  1  0.00000000  0.91666667  0.91750000  1.0
  P3+  P92  1  0.50000000  0.41666667  0.41750000  1.0
  P3+  P93  1  0.50000000  0.91666667  0.41750000  1.0
  P3+  P94  1  0.50000000  0.41666667  0.91750000  1.0
  P3+  P95  1  0.50000000  0.91666667  0.91750000  1.0
  S1.7-  S96  1  0.83875000  0.58604167  0.12385000  1.0
  S1.7-  S97  1  0.83875000  0.08604167  0.12385000  1.0
  S1.7-  S98  1  0.83875000  0.58604167  0.62385000  1.0
  S1.7-  S99  1  0.83875000  0.08604167  0.62385000  1.0
  S1.7-  S100  1  0.33875000  0.58604167  0.12385000  1.0
  S1.7-  S101  1  0.33875000  0.08604167  0.12385000  1.0
  S1.7-  S102  1  0.33875000  0.58604167  0.62385000  1.0
  S1.7-  S103  1  0.33875000  0.08604167  0.62385000  1.0
  S1.7-  S104  1  0.83875000  0.33604167  0.12385000  1.0
  S1.7-  S105  1  0.83875000  0.83604167  0.12385000  1.0
  S1.7-  S106  1  0.83875000  0.33604167  0.62385000  1.0
  S1.7-  S107  1  0.83875000  0.83604167  0.62385000  1.0
  S1.7-  S108  1  0.33875000  0.33604167  0.12385000  1.0
  S1.7-  S109  1  0.33875000  0.83604167  0.12385000  1.0
  S1.7-  S110  1  0.33875000  0.33604167  0.62385000  1.0
  S1.7-  S111  1  0.33875000  0.83604167  0.62385000  1.0
  S1.7-  S112  1  0.50000000  0.49729167  0.12385000  1.0
  S1.7-  S113  1  0.50000000  0.99729167  0.12385000  1.0
  S1.7-  S114  1  0.50000000  0.49729167  0.62385000  1.0
  S1.7-  S115  1  0.50000000  0.99729167  0.62385000  1.0
  S1.7-  S116  1  0.00000000  0.49729167  0.12385000  1.0
  S1.7-  S117  1  0.00000000  0.99729167  0.12385000  1.0
  S1.7-  S118  1  0.00000000  0.49729167  0.62385000  1.0
  S1.7-  S119  1  0.00000000  0.99729167  0.62385000  1.0
  S1.7-  S120  1  0.50000000  0.24729167  0.12385000  1.0
  S1.7-  S121  1  0.50000000  0.74729167  0.12385000  1.0
  S1.7-  S122  1  0.50000000  0.24729167  0.62385000  1.0
  S1.7-  S123  1  0.50000000  0.74729167  0.62385000  1.0
  S1.7-  S124  1  0.00000000  0.24729167  0.12385000  1.0
  S1.7-  S125  1  0.00000000  0.74729167  0.12385000  1.0
  S1.7-  S126  1  0.00000000  0.24729167  0.62385000  1.0
  S1.7-  S127  1  0.00000000  0.74729167  0.62385000  1.0
  S1.7-  S128  1  0.66125000  0.66666667  0.12385000  1.0
  S1.7-  S129  1  0.66125000  0.16666667  0.12385000  1.0
  S1.7-  S130  1  0.66125000  0.66666667  0.62385000  1.0
  S1.7-  S131  1  0.66125000  0.16666667  0.62385000  1.0
  S1.7-  S132  1  0.16125000  0.66666667  0.12385000  1.0
  S1.7-  S133  1  0.16125000  0.16666667  0.12385000  1.0
  S1.7-  S134  1  0.16125000  0.66666667  0.62385000  1.0
  S1.7-  S135  1  0.16125000  0.16666667  0.62385000  1.0
  S1.7-  S136  1  0.66125000  0.41666667  0.12385000  1.0
  S1.7-  S137  1  0.66125000  0.91666667  0.12385000  1.0
  S1.7-  S138  1  0.66125000  0.41666667  0.62385000  1.0
  S1.7-  S139  1  0.66125000  0.91666667  0.62385000  1.0
  S1.7-  S140  1  0.16125000  0.41666667  0.12385000  1.0
  S1.7-  S141  1  0.16125000  0.91666667  0.12385000  1.0
  S1.7-  S142  1  0.16125000  0.41666667  0.62385000  1.0
  S1.7-  S143  1  0.16125000  0.91666667  0.62385000  1.0
  S1.7-  S144  1  0.66125000  0.49729167  0.37615000  1.0
  S1.7-  S145  1  0.66125000  0.99729167  0.37615000  1.0
  S1.7-  S146  1  0.66125000  0.49729167  0.87615000  1.0
  S1.7-  S147  1  0.66125000  0.99729167  0.87615000  1.0
  S1.7-  S148  1  0.16125000  0.49729167  0.37615000  1.0
  S1.7-  S149  1  0.16125000  0.99729167  0.37615000  1.0
  S1.7-  S150  1  0.16125000  0.49729167  0.87615000  1.0
  S1.7-  S151  1  0.16125000  0.99729167  0.87615000  1.0
  S1.7-  S152  1  0.66125000  0.24729167  0.37615000  1.0
  S1.7-  S153  1  0.66125000  0.74729167  0.37615000  1.0
  S1.7-  S154  1  0.66125000  0.24729167  0.87615000  1.0
  S1.7-  S155  1  0.66125000  0.74729167  0.87615000  1.0
  S1.7-  S156  1  0.16125000  0.24729167  0.37615000  1.0
  S1.7-  S157  1  0.16125000  0.74729167  0.37615000  1.0
  S1.7-  S158  1  0.16125000  0.24729167  0.87615000  1.0
  S1.7-  S159  1  0.16125000  0.74729167  0.87615000  1.0
  S1.7-  S160  1  0.00000000  0.58604167  0.37615000  1.0
  S1.7-  S161  1  0.00000000  0.08604167  0.37615000  1.0
  S1.7-  S162  1  0.00000000  0.58604167  0.87615000  1.0
  S1.7-  S163  1  0.00000000  0.08604167  0.87615000  1.0
  S1.7-  S164  1  0.50000000  0.58604167  0.37615000  1.0
  S1.7-  S165  1  0.50000000  0.08604167  0.37615000  1.0
  S1.7-  S166  1  0.50000000  0.58604167  0.87615000  1.0
  S1.7-  S167  1  0.50000000  0.08604167  0.87615000  1.0
  S1.7-  S168  1  0.00000000  0.33604167  0.37615000  1.0
  S1.7-  S169  1  0.00000000  0.83604167  0.37615000  1.0
  S1.7-  S170  1  0.00000000  0.33604167  0.87615000  1.0
  S1.7-  S171  1  0.00000000  0.83604167  0.87615000  1.0
  S1.7-  S172  1  0.50000000  0.33604167  0.37615000  1.0
  S1.7-  S173  1  0.50000000  0.83604167  0.37615000  1.0
  S1.7-  S174  1  0.50000000  0.33604167  0.87615000  1.0
  S1.7-  S175  1  0.50000000  0.83604167  0.87615000  1.0
  S1.7-  S176  1  0.83875000  0.66666667  0.37615000  1.0
  S1.7-  S177  1  0.83875000  0.16666667  0.37615000  1.0
  S1.7-  S178  1  0.83875000  0.66666667  0.87615000  1.0
  S1.7-  S179  1  0.83875000  0.16666667  0.87615000  1.0
  S1.7-  S180  1  0.33875000  0.66666667  0.37615000  1.0
  S1.7-  S181  1  0.33875000  0.16666667  0.37615000  1.0
  S1.7-  S182  1  0.33875000  0.66666667  0.87615000  1.0
  S1.7-  S183  1  0.33875000  0.16666667  0.87615000  1.0
  S1.7-  S184  1  0.83875000  0.41666667  0.37615000  1.0
  S1.7-  S185  1  0.83875000  0.91666667  0.37615000  1.0
  S1.7-  S186  1  0.83875000  0.41666667  0.87615000  1.0
  S1.7-  S187  1  0.83875000  0.91666667  0.87615000  1.0
  S1.7-  S188  1  0.33875000  0.41666667  0.37615000  1.0
  S1.7-  S189  1  0.33875000  0.91666667  0.37615000  1.0
  S1.7-  S190  1  0.33875000  0.41666667  0.87615000  1.0
  S1.7-  S191  1  0.33875000  0.91666667  0.87615000  1.0
