# generated using pymatgen
data_Li2PS3
_symmetry_space_group_name_H-M   'P 1'
_cell_length_a   24.30960000
_cell_length_b   12.15480000
_cell_length_c   13.19760000
_cell_angle_alpha   90.00000000
_cell_angle_beta   90.00000000
_cell_angle_gamma   120.00000000
_symmetry_Int_Tables_number   1
_chemical_formula_structural   Li2PS3
_chemical_formula_sum   'Li64 P32 S96'
_cell_volume   3377.15678365
_cell_formula_units_Z   32
loop_
 _symmetry_equiv_pos_site_id
 _symmetry_equiv_pos_as_xyz
  1  'x, y, z'
loop_
 _atom_type_symbol
 _atom_type_oxidation_number
  Li+  1.0
  P3+  3.0
  S1.7-  -1.7
loop_
 _atom_site_type_symbol
 _atom_site_label
 _atom_site_symmetry_multiplicity
 _atom_site_fract_x
 _atom_site_fract_y
 _atom_site_fract_z
 _atom_site_occupancy
  Li+  Li1  1  0.16666667  0.16666667  0.00000000  1.0
  Li+  Li1  1  0.66666667  0.16666667  0.00000000  1.0
  Li+  Li1  1  0.16666667  0.16666667  0.50000000  1.0
  Li+  Li1  1  0.66666667  0.16666667  0.50000000  1.0
  Li+  Li1  1  0.16666667  0.66666667  0.00000000  1.0
  Li+  Li1  1  0.66666667  0.66666667  0.00000000  1.0
  Li+  Li1  1  0.16666667  0.66666667  0.50000000  1.0
  Li+  Li1  1  0.66666667  0.66666667  0.50000000  1.0
  Li+  Li1  1  0.41666666  0.16666667  0.00000000  1.0
  Li+  Li1  1  0.91666667  0.16666667  0.00000000  1.0
  Li+  Li1  1  0.41666666  0.16666667  0.50000000  1.0
  Li+  Li1  1  0.91666667  0.16666667  0.50000000  1.0
  Li+  Li1  1  0.41666666  0.66666667  0.00000000  1.0
  Li+  Li1  1  0.91666666  0.66666667  0.00000000  1.0
  Li+  Li1  1  0.41666666  0.66666667  0.50000000  1.0
  Li+  Li1  1  0.91666666  0.66666667  0.50000000  1.0
  Li+  Li1  1  0.08333333  0.33333333  0.00000000  1.0
  Li+  Li1  1  0.58333333  0.33333333  0.00000000  1.0
  Li+  Li1  1  0.08333333  0.33333333  0.50000000  1.0
  Li+  Li1  1  0.58333333  0.33333333  0.50000000  1.0
  Li+  Li1  1  0.08333333  0.83333333  0.00000000  1.0
  Li+  Li1  1  0.58333334  0.83333333  0.00000000  1.0
  Li+  Li1  1  0.08333333  0.83333333  0.50000000  1.0
  Li+  Li1  1  0.58333334  0.83333333  0.50000000  1.0
  Li+  Li1  1  0.33333333  0.33333333  0.00000000  1.0
  Li+  Li1  1  0.83333333  0.33333333  0.00000000  1.0
  Li+  Li1  1  0.33333333  0.33333333  0.50000000  1.0
  Li+  Li1  1  0.83333333  0.33333333  0.50000000  1.0
  Li+  Li1  1  0.33333333  0.83333333  0.00000000  1.0
  Li+  Li1  1  0.83333333  0.83333333  0.00000000  1.0
  Li+  Li1  1  0.33333333  0.83333333  0.50000000  1.0
  Li+  Li1  1  0.83333333  0.83333333  0.50000000  1.0
  Li+  Li2  1  0.08333333  0.33333333  0.25000000  1.0
  Li+  Li2  1  0.58333333  0.33333333  0.25000000  1.0
  Li+  Li2  1  0.08333333  0.33333333  0.75000000  1.0
  Li+  Li2  1  0.58333333  0.33333333  0.75000000  1.0
  Li+  Li2  1  0.08333333  0.83333333  0.25000000  1.0
  Li+  Li2  1  0.58333334  0.83333333  0.25000000  1.0
  Li+  Li2  1  0.08333333  0.83333333  0.75000000  1.0
  Li+  Li2  1  0.58333334  0.83333333  0.75000000  1.0
  Li+  Li2  1  0.33333333  0.33333333  0.25000000  1.0
  Li+  Li2  1  0.83333333  0.33333333  0.25000000  1.0
  Li+  Li2  1  0.33333333  0.33333333  0.75000000  1.0
  Li+  Li2  1  0.83333333  0.33333333  0.75000000  1.0
  Li+  Li2  1  0.33333333  0.83333333  0.25000000  1.0
  Li+  Li2  1  0.83333333  0.83333333  0.25000000  1.0
  Li+  Li2  1  0.33333333  0.83333333  0.75000000  1.0
  Li+  Li2  1  0.83333333  0.83333333  0.75000000  1.0
  Li+  Li2  1  0.16666667  0.16666667  0.25000000  1.0
  Li+  Li2  1  0.66666667  0.16666667  0.25000000  1.0
  Li+  Li2  1  0.16666667  0.16666667  0.75000000  1.0
  Li+  Li2  1  0.66666667  0.16666667  0.75000000  1.0
  Li+  Li2  1  0.16666667  0.66666667  0.25000000  1.0
  Li+  Li2  1  0.66666667  0.66666667  0.25000000  1.0
  Li+  Li2  1  0.16666667  0.66666667  0.75000000  1.0
  Li+  Li2  1  0.66666667  0.66666667  0.75000000  1.0
  Li+  Li2  1  0.41666666  0.16666667  0.25000000  1.0
  Li+  Li2  1  0.91666667  0.16666667  0.25000000  1.0
  Li+  Li2  1  0.41666666  0.16666667  0.75000000  1.0
  Li+  Li2  1  0.91666667  0.16666667  0.75000000  1.0
  Li+  Li2  1  0.41666666  0.66666667  0.25000000  1.0
  Li+  Li2  1  0.91666666  0.66666667  0.25000000  1.0
  Li+  Li2  1  0.41666666  0.66666667  0.75000000  1.0
  Li+  Li2  1  0.91666666  0.66666667  0.75000000  1.0
  P3+  P1  1  0.00000000  0.00000000  0.08250000  1.0
  P3+  P1  1  0.50000000  0.00000000  0.08250000  1.0
  P3+  P1  1  0.00000000  0.00000000  0.58250000  1.0
  P3+  P1  1  0.50000000  0.00000000  0.58250000  1.0
  P3+  P1  1  0.00000000  0.50000000  0.08250000  1.0
  P3+  P1  1  0.50000000  0.50000000  0.08250000  1.0
  P3+  P1  1  0.00000000  0.50000000  0.58250000  1.0
  P3+  P1  1  0.50000000  0.50000000  0.58250000  1.0
  P3+  P1  1  0.25000000  0.00000000  0.08250000  1.0
  P3+  P1  1  0.75000000  0.00000000  0.08250000  1.0
  P3+  P1  1  0.25000000  0.00000000  0.58250000  1.0
  P3+  P1  1  0.75000000  0.00000000  0.58250000  1.0
  P3+  P1  1  0.25000000  0.50000000  0.08250000  1.0
  P3+  P1  1  0.75000000  0.50000000  0.08250000  1.0
  P3+  P1  1  0.25000000  0.50000000  0.58250000  1.0
  P3+  P1  1  0.75000000  0.50000000  0.58250000  1.0
  P3+  P1  1  0.00000000  0.00000000  0.41750000  1.0
  P3+  P1  1  0.50000000  0.00000000  0.41750000  1.0
  P3+  P1  1  0.00000000  0.00000000  0.91750000  1.0
  P3+  P1  1  0.50000000  0.00000000  0.91750000  1.0
  P3+  P1  1  0.00000000  0.50000000  0.41750000  1.0
  P3+  P1  1  0.50000000  0.50000000  0.41750000  1.0
  P3+  P1  1  0.00000000  0.50000000  0.91750000  1.0
  P3+  P1  1  0.50000000  0.50000000  0.91750000  1.0
  P3+  P1  1  0.25000000  0.00000000  0.41750000  1.0
  P3+  P1  1  0.75000000  0.00000000  0.41750000  1.0
  P3+  P1  1  0.25000000  0.00000000  0.91750000  1.0
  P3+  P1  1  0.75000000  0.00000000  0.91750000  1.0
  P3+  P1  1  0.25000000  0.50000000  0.41750000  1.0
  P3+  P1  1  0.75000000  0.50000000  0.41750000  1.0
  P3+  P1  1  0.25000000  0.50000000  0.91750000  1.0
  P3+  P1  1  0.75000000  0.50000000  0.91750000  1.0
  S1.7-  S1  1  0.08062500  0.16125000  0.12385000  1.0
  S1.7-  S1  1  0.58062500  0.16125000  0.12385000  1.0
  S1.7-  S1  1  0.08062500  0.16125000  0.62385000  1.0
  S1.7-  S1  1  0.58062500  0.16125000  0.62385000  1.0
  S1.7-  S1  1  0.08062500  0.66125000  0.12385000  1.0
  S1.7-  S1  1  0.58062500  0.66125000  0.12385000  1.0
  S1.7-  S1  1  0.08062500  0.66125000  0.62385000  1.0
  S1.7-  S1  1  0.58062500  0.66125000  0.62385000  1.0
  S1.7-  S1  1  0.33062500  0.16125000  0.12385000  1.0
  S1.7-  S1  1  0.83062500  0.16125000  0.12385000  1.0
  S1.7-  S1  1  0.33062500  0.16125000  0.62385000  1.0
  S1.7-  S1  1  0.83062500  0.16125000  0.62385000  1.0
  S1.7-  S1  1  0.33062500  0.66125000  0.12385000  1.0
  S1.7-  S1  1  0.83062500  0.66125000  0.12385000  1.0
  S1.7-  S1  1  0.33062500  0.66125000  0.62385000  1.0
  S1.7-  S1  1  0.83062500  0.66125000  0.62385000  1.0
  S1.7-  S1  1  0.16937500  0.50000000  0.12385000  1.0
  S1.7-  S1  1  0.66937500  0.50000000  0.12385000  1.0
  S1.7-  S1  1  0.16937500  0.50000000  0.62385000  1.0
  S1.7-  S1  1  0.66937500  0.50000000  0.62385000  1.0
  S1.7-  S1  1  0.16937500  0.00000000  0.12385000  1.0
  S1.7-  S1  1  0.66937500  0.00000000  0.12385000  1.0
  S1.7-  S1  1  0.16937500  0.00000000  0.62385000  1.0
  S1.7-  S1  1  0.66937500  0.00000000  0.62385000  1.0
  S1.7-  S1  1  0.41937500  0.50000000  0.12385000  1.0
  S1.7-  S1  1  0.91937500  0.50000000  0.12385000  1.0
  S1.7-  S1  1  0.41937500  0.50000000  0.62385000  1.0
  S1.7-  S1  1  0.91937500  0.50000000  0.62385000  1.0
  S1.7-  S1  1  0.41937500  0.00000000  0.12385000  1.0
  S1.7-  S1  1  0.91937500  0.00000000  0.12385000  1.0
  S1.7-  S1  1  0.41937500  0.00000000  0.62385000  1.0
  S1.7-  S1  1  0.91937500  0.00000000  0.62385000  1.0
  S1.7-  S1  1  0.00000000  0.33875000  0.12385000  1.0
  S1.7-  S1  1  0.50000000  0.33875000  0.12385000  1.0
  S1.7-  S1  1  0.00000000  0.33875000  0.62385000  1.0
  S1.7-  S1  1  0.50000000  0.33875000  0.62385000  1.0
  S1.7-  S1  1  0.00000000  0.83875000  0.12385000  1.0
  S1.7-  S1  1  0.50000000  0.83875000  0.12385000  1.0
  S1.7-  S1  1  0.00000000  0.83875000  0.62385000  1.0
  S1.7-  S1  1  0.50000000  0.83875000  0.62385000  1.0
  S1.7-  S1  1  0.25000000  0.33875000  0.12385000  1.0
  S1.7-  S1  1  0.75000000  0.33875000  0.12385000  1.0
  S1.7-  S1  1  0.25000000  0.33875000  0.62385000  1.0
  S1.7-  S1  1  0.75000000  0.33875000  0.62385000  1.0
  S1.7-  S1  1  0.25000000  0.83875000  0.12385000  1.0
  S1.7-  S1  1  0.75000000  0.83875000  0.12385000  1.0
  S1.7-  S1  1  0.25000000  0.83875000  0.62385000  1.0
  S1.7-  S1  1  0.75000000  0.83875000  0.62385000  1.0
  S1.7-  S1  1  0.16937500  0.33875000  0.37615000  1.0
  S1.7-  S1  1  0.66937500  0.33875000  0.37615000  1.0
  S1.7-  S1  1  0.16937500  0.33875000  0.87615000  1.0
  S1.7-  S1  1  0.66937500  0.33875000  0.87615000  1.0
  S1.7-  S1  1  0.16937500  0.83875000  0.37615000  1.0
  S1.7-  S1  1  0.66937500  0.83875000  0.37615000  1.0
  S1.7-  S1  1  0.16937500  0.83875000  0.87615000  1.0
  S1.7-  S1  1  0.66937500  0.83875000  0.87615000  1.0
  S1.7-  S1  1  0.41937500  0.33875000  0.37615000  1.0
  S1.7-  S1  1  0.91937500  0.33875000  0.37615000  1.0
  S1.7-  S1  1  0.41937500  0.33875000  0.87615000  1.0
  S1.7-  S1  1  0.91937500  0.33875000  0.87615000  1.0
  S1.7-  S1  1  0.41937500  0.83875000  0.37615000  1.0
  S1.7-  S1  1  0.91937500  0.83875000  0.37615000  1.0
  S1.7-  S1  1  0.41937500  0.83875000  0.87615000  1.0
  S1.7-  S1  1  0.91937500  0.83875000  0.87615000  1.0
  S1.7-  S1  1  0.08062500  0.00000000  0.37615000  1.0
  S1.7-  S1  1  0.58062500  0.00000000  0.37615000  1.0
  S1.7-  S1  1  0.08062500  0.00000000  0.87615000  1.0
  S1.7-  S1  1  0.58062500  0.00000000  0.87615000  1.0
  S1.7-  S1  1  0.08062500  0.50000000  0.37615000  1.0
  S1.7-  S1  1  0.58062500  0.50000000  0.37615000  1.0
  S1.7-  S1  1  0.08062500  0.50000000  0.87615000  1.0
  S1.7-  S1  1  0.58062500  0.50000000  0.87615000  1.0
  S1.7-  S1  1  0.33062500  0.00000000  0.37615000  1.0
  S1.7-  S1  1  0.83062500  0.00000000  0.37615000  1.0
  S1.7-  S1  1  0.33062500  0.00000000  0.87615000  1.0
  S1.7-  S1  1  0.83062500  0.00000000  0.87615000  1.0
  S1.7-  S1  1  0.33062500  0.50000000  0.37615000  1.0
  S1.7-  S1  1  0.83062500  0.50000000  0.37615000  1.0
  S1.7-  S1  1  0.33062500  0.50000000  0.87615000  1.0
  S1.7-  S1  1  0.83062500  0.50000000  0.87615000  1.0
  S1.7-  S1  1  0.00000000  0.16125000  0.37615000  1.0
  S1.7-  S1  1  0.50000000  0.16125000  0.37615000  1.0
  S1.7-  S1  1  0.00000000  0.16125000  0.87615000  1.0
  S1.7-  S1  1  0.50000000  0.16125000  0.87615000  1.0
  S1.7-  S1  1  0.00000000  0.66125000  0.37615000  1.0
  S1.7-  S1  1  0.50000000  0.66125000  0.37615000  1.0
  S1.7-  S1  1  0.00000000  0.66125000  0.87615000  1.0
  S1.7-  S1  1  0.50000000  0.66125000  0.87615000  1.0
  S1.7-  S1  1  0.25000000  0.16125000  0.37615000  1.0
  S1.7-  S1  1  0.75000000  0.16125000  0.37615000  1.0
  S1.7-  S1  1  0.25000000  0.16125000  0.87615000  1.0
  S1.7-  S1  1  0.75000000  0.16125000  0.87615000  1.0
  S1.7-  S1  1  0.25000000  0.66125000  0.37615000  1.0
  S1.7-  S1  1  0.75000000  0.66125000  0.37615000  1.0
  S1.7-  S1  1  0.25000000  0.66125000  0.87615000  1.0
  S1.7-  S1  1  0.75000000  0.66125000  0.87615000  1.0
