# generated using pymatgen
data_Li6PS5Br
_symmetry_space_group_name_H-M   'P 1'
_cell_length_a   14.12516506
_cell_length_b   14.12516506
_cell_length_c   14.12516506
_cell_angle_alpha   60.00000000
_cell_angle_beta   120.00000000
_cell_angle_gamma   120.00000000
_symmetry_Int_Tables_number   1
_chemical_formula_structural   Li6PS5Br
_chemical_formula_sum   'Li48 P8 S40 Br8'
_cell_volume   1992.80863613
_cell_formula_units_Z   8
loop_
 _symmetry_equiv_pos_site_id
 _symmetry_equiv_pos_as_xyz
  1  'x, y, z'
loop_
 _atom_type_symbol
 _atom_type_oxidation_number
  Li+  1.0
  P5+  5.0
  S2-  -2.0
  Br-  -1.0
loop_
 _atom_site_type_symbol
 _atom_site_label
 _atom_site_symmetry_multiplicity
 _atom_site_fract_x
 _atom_site_fract_y
 _atom_site_fract_z
 _atom_site_occupancy
  Li+  Li0  1  0.23642389  0.75940417  0.24146063  1.0
  Li+  Li1  1  0.74150000  0.25850000  0.74150000  1.0
  Li+  Li2  1  0.50850000  0.25850000  0.50850000  1.0
  Li+  Li3  1  0.00499113  0.25386452  0.24031613  1.0
  Li+  Li4  1  0.50850000  0.25850000  0.24150000  1.0
  Li+  Li5  1  0.74150000  0.49150000  0.50850000  1.0
  Li+  Li6  1  0.18035000  0.70545000  0.73745000  1.0
  Li+  Li7  1  0.18035000  0.20545000  0.23745000  1.0
  Li+  Li8  1  0.68035000  0.70545000  0.23745000  1.0
  Li+  Li9  1  0.00764442  0.82240636  0.45597662  1.0
  Li+  Li10  1  0.01255000  0.81965000  0.95545000  1.0
  Li+  Li11  1  0.51255000  0.81965000  0.95545000  1.0
  Li+  Li12  1  0.51347492  0.31976639  0.95680847  1.0
  Li+  Li13  1  0.29455000  0.98745000  0.73745000  1.0
  Li+  Li14  1  0.29964687  0.48860071  0.74160447  1.0
  Li+  Li15  1  0.29455000  0.98745000  0.23745000  1.0
  Li+  Li16  1  0.29455000  0.48745000  0.23745000  1.0
  Li+  Li17  1  0.79455000  0.98745000  0.23745000  1.0
  Li+  Li18  1  0.79455000  0.48745000  0.23745000  1.0
  Li+  Li19  1  0.29659386  0.82192273  0.73617311  1.0
  Li+  Li20  1  0.79190869  0.32298593  0.73529558  1.0
  Li+  Li21  1  0.79474467  0.31767421  0.23819770  1.0
  Li+  Li22  1  0.01106113  0.20528750  0.73695007  1.0
  Li+  Li23  1  0.51255000  0.70545000  0.23745000  1.0
  Li+  Li24  1  0.01255000  0.31965000  0.73745000  1.0
  Li+  Li25  1  0.00716283  0.81793658  0.23508637  1.0
  Li+  Li26  1  0.51255000  0.81965000  0.73745000  1.0
  Li+  Li27  1  0.01255000  0.70545000  0.56965000  1.0
  Li+  Li28  1  0.01255000  0.20545000  0.06965000  1.0
  Li+  Li29  1  0.51088264  0.20244254  0.57181711  1.0
  Li+  Li30  1  0.51255000  0.20545000  0.06965000  1.0
  Li+  Li31  1  0.01255000  0.98745000  0.56965000  1.0
  Li+  Li32  1  0.51255000  0.98745000  0.56965000  1.0
  Li+  Li33  1  0.18035000  0.48745000  0.73745000  1.0
  Li+  Li34  1  0.68035000  0.48745000  0.73745000  1.0
  Li+  Li35  1  0.00897072  0.98725670  0.45648316  1.0
  Li+  Li36  1  0.01632001  0.98589353  0.95182626  1.0
  Li+  Li37  1  0.01255000  0.48745000  0.95545000  1.0
  Li+  Li38  1  0.51017191  0.48811814  0.45702751  1.0
  Li+  Li39  1  0.51255000  0.98745000  0.95545000  1.0
  Li+  Li40  1  0.51255000  0.48745000  0.95545000  1.0
  Li+  Li41  1  0.29455000  0.98745000  0.56965000  1.0
  Li+  Li42  1  0.29455000  0.48745000  0.56965000  1.0
  Li+  Li43  1  0.29394229  0.48815386  0.07357924  1.0
  Li+  Li44  1  0.79455000  0.98745000  0.56965000  1.0
  Li+  Li45  1  0.79455000  0.48745000  0.06965000  1.0
  Li+  Li46  1  0.18035000  0.98745000  0.95545000  1.0
  Li+  Li47  1  0.68035000  0.98745000  0.45545000  1.0
  P5+  P48  1  0.25000000  0.75000000  0.50000000  1.0
  P5+  P49  1  0.25000000  0.25000000  0.50000000  1.0
  P5+  P50  1  0.25000000  0.75000000  0.00000000  1.0
  P5+  P51  1  0.25000000  0.25000000  0.00000000  1.0
  P5+  P52  1  0.75000000  0.75000000  0.50000000  1.0
  P5+  P53  1  0.75000000  0.25000000  0.50000000  1.0
  P5+  P54  1  0.75000000  0.75000000  0.00000000  1.0
  P5+  P55  1  0.74976134  0.25429654  0.99635375  1.0
  S2-  S56  1  0.31030000  0.68970000  0.68090000  1.0
  S2-  S57  1  0.31030000  0.18970000  0.68090000  1.0
  S2-  S58  1  0.31030000  0.68970000  0.18090000  1.0
  S2-  S59  1  0.31030000  0.18970000  0.18090000  1.0
  S2-  S60  1  0.81030000  0.68970000  0.68090000  1.0
  S2-  S61  1  0.81030000  0.18970000  0.68090000  1.0
  S2-  S62  1  0.81030000  0.68970000  0.18090000  1.0
  S2-  S63  1  0.81030000  0.18970000  0.18090000  1.0
  S2-  S64  1  0.31030000  0.68970000  0.43970000  1.0
  S2-  S65  1  0.31030000  0.18970000  0.43970000  1.0
  S2-  S66  1  0.30836311  0.68743749  0.94038575  1.0
  S2-  S67  1  0.31421977  0.19222417  0.93959076  1.0
  S2-  S68  1  0.81030000  0.68970000  0.43970000  1.0
  S2-  S69  1  0.81030000  0.18970000  0.43970000  1.0
  S2-  S70  1  0.81030000  0.68970000  0.93970000  1.0
  S2-  S71  1  0.81030000  0.18970000  0.93970000  1.0
  S2-  S72  1  0.31030000  0.93090000  0.43970000  1.0
  S2-  S73  1  0.31030000  0.43090000  0.43970000  1.0
  S2-  S74  1  0.31030000  0.93090000  0.93970000  1.0
  S2-  S75  1  0.31030000  0.43090000  0.93970000  1.0
  S2-  S76  1  0.81030000  0.93090000  0.43970000  1.0
  S2-  S77  1  0.81030000  0.43090000  0.43970000  1.0
  S2-  S78  1  0.81030000  0.93090000  0.93970000  1.0
  S2-  S79  1  0.80839832  0.43074584  0.93956994  1.0
  S2-  S80  1  0.06910000  0.68970000  0.43970000  1.0
  S2-  S81  1  0.07045091  0.18964903  0.43482702  1.0
  S2-  S82  1  0.06631068  0.69209690  0.93869033  1.0
  S2-  S83  1  0.06910000  0.18970000  0.93970000  1.0
  S2-  S84  1  0.56594875  0.69281578  0.43848219  1.0
  S2-  S85  1  0.56910000  0.18970000  0.43970000  1.0
  S2-  S86  1  0.56910000  0.68970000  0.93970000  1.0
  S2-  S87  1  0.56910000  0.18970000  0.93970000  1.0
  S2-  S88  1  0.99894630  0.49673831  0.74843750  1.0
  S2-  S89  1  0.50307656  0.50390915  0.74649612  1.0
  S2-  S90  1  0.37500000  0.12500000  0.37500000  1.0
  S2-  S91  1  0.37500000  0.62500000  0.87500000  1.0
  S2-  S92  1  0.87500000  0.62500000  0.37500000  1.0
  S2-  S93  1  0.87500000  0.12500000  0.37500000  1.0
  S2-  S94  1  0.87500000  0.62500000  0.87500000  1.0
  S2-  S95  1  0.87500000  0.12500000  0.87500000  1.0
  Br-  Br96  1  0.00000000  0.00000000  0.75000000  1.0
  Br-  Br97  1  0.00000000  0.00000000  0.25000000  1.0
  Br-  Br98  1  0.99798772  0.50308551  0.24933796  1.0
  Br-  Br99  1  0.50034398  0.00001935  0.75027761  1.0
  Br-  Br100  1  0.50000000  0.00000000  0.25000000  1.0
  Br-  Br101  1  0.50000000  0.50000000  0.25000000  1.0
  Br-  Br102  1  0.37500000  0.62500000  0.37500000  1.0
  Br-  Br103  1  0.37500000  0.12500000  0.87500000  1.0
