# generated using pymatgen
data_LiAlSi3O8
_symmetry_space_group_name_H-M   'P 1'
_cell_length_a   14.11200000
_cell_length_b   22.37332008
_cell_length_c   7.46943766
_cell_angle_alpha   116.43600572
_cell_angle_beta   108.95112658
_cell_angle_gamma   98.56298949
_symmetry_Int_Tables_number   1
_chemical_formula_structural   LiAlSi3O8
_chemical_formula_sum   'Li12 Al12 Si36 O96'
_cell_volume   1873.51384886
_cell_formula_units_Z   12
loop_
 _symmetry_equiv_pos_site_id
 _symmetry_equiv_pos_as_xyz
  1  'x, y, z'
loop_
 _atom_type_symbol
 _atom_type_oxidation_number
  Li+  1.0
  Al3+  3.0
  Si4+  4.0
  O2-  -2.0
loop_
 _atom_site_type_symbol
 _atom_site_label
 _atom_site_symmetry_multiplicity
 _atom_site_fract_x
 _atom_site_fract_y
 _atom_site_fract_z
 _atom_site_occupancy
  Li+  Li0  1  0.41850000  0.23966667  0.74300000  1.0
  Li+  Li0  1  0.41850000  0.57300000  0.74300000  1.0
  Li+  Li0  1  0.41850000  0.90633333  0.74300000  1.0
  Li+  Li1  1  0.91850000  0.23966667  0.74300000  1.0
  Li+  Li1  1  0.91850000  0.57300000  0.74300000  1.0
  Li+  Li1  1  0.91850000  0.90633333  0.74300000  1.0
  Li+  Li2  1  0.08150000  0.09366667  0.25700000  1.0
  Li+  Li2  1  0.08150000  0.42700000  0.25700000  1.0
  Li+  Li2  1  0.08150000  0.76033333  0.25700000  1.0
  Li+  Li3  1  0.55750000  0.08200000  0.31000000  1.0
  Li+  Li3  1  0.55750000  0.41533333  0.31000000  1.0
  Li+  Li3  1  0.55750000  0.74866667  0.31000000  1.0
  Al3+  Al4  1  0.39605000  0.04820000  0.83780000  1.0
  Al3+  Al4  1  0.39605000  0.38153333  0.83780000  1.0
  Al3+  Al4  1  0.39605000  0.71486667  0.83780000  1.0
  Al3+  Al5  1  0.10395000  0.28513333  0.16220000  1.0
  Al3+  Al5  1  0.10395000  0.61846667  0.16220000  1.0
  Al3+  Al5  1  0.10395000  0.95180000  0.16220000  1.0
  Al3+  Al6  1  0.15255000  0.19243333  0.78090000  1.0
  Al3+  Al6  1  0.15255000  0.52576667  0.78090000  1.0
  Al3+  Al6  1  0.15255000  0.85910000  0.78090000  1.0
  Al3+  Al7  1  0.67855000  0.26426667  0.54420000  1.0
  Al3+  Al7  1  0.67855000  0.59760000  0.54420000  1.0
  Al3+  Al7  1  0.67855000  0.93093333  0.54420000  1.0
  Si4+  Si8  1  0.89605000  0.04820000  0.83780000  1.0
  Si4+  Si8  1  0.89605000  0.38153333  0.83780000  1.0
  Si4+  Si8  1  0.89605000  0.71486667  0.83780000  1.0
  Si4+  Si9  1  0.60395000  0.28513333  0.16220000  1.0
  Si4+  Si9  1  0.60395000  0.61846667  0.16220000  1.0
  Si4+  Si9  1  0.60395000  0.95180000  0.16220000  1.0
  Si4+  Si10  1  0.38430000  0.27090000  0.18170000  1.0
  Si4+  Si10  1  0.38430000  0.60423333  0.18170000  1.0
  Si4+  Si10  1  0.38430000  0.93756667  0.18170000  1.0
  Si4+  Si11  1  0.88430000  0.27090000  0.18170000  1.0
  Si4+  Si11  1  0.88430000  0.60423333  0.18170000  1.0
  Si4+  Si11  1  0.88430000  0.93756667  0.18170000  1.0
  Si4+  Si12  1  0.11570000  0.06243333  0.81830000  1.0
  Si4+  Si12  1  0.11570000  0.39576667  0.81830000  1.0
  Si4+  Si12  1  0.11570000  0.72910000  0.81830000  1.0
  Si4+  Si13  1  0.61570000  0.06243333  0.81830000  1.0
  Si4+  Si13  1  0.61570000  0.39576667  0.81830000  1.0
  Si4+  Si13  1  0.61570000  0.72910000  0.81830000  1.0
  Si4+  Si14  1  0.34745000  0.14090000  0.21910000  1.0
  Si4+  Si14  1  0.34745000  0.47423333  0.21910000  1.0
  Si4+  Si14  1  0.34745000  0.80756667  0.21910000  1.0
  Si4+  Si15  1  0.84745000  0.14090000  0.21910000  1.0
  Si4+  Si15  1  0.84745000  0.47423333  0.21910000  1.0
  Si4+  Si15  1  0.84745000  0.80756667  0.21910000  1.0
  Si4+  Si16  1  0.65255000  0.19243333  0.78090000  1.0
  Si4+  Si16  1  0.65255000  0.52576667  0.78090000  1.0
  Si4+  Si16  1  0.65255000  0.85910000  0.78090000  1.0
  Si4+  Si17  1  0.32145000  0.06906667  0.45580000  1.0
  Si4+  Si17  1  0.32145000  0.40240000  0.45580000  1.0
  Si4+  Si17  1  0.32145000  0.73573333  0.45580000  1.0
  Si4+  Si18  1  0.82145000  0.06906667  0.45580000  1.0
  Si4+  Si18  1  0.82145000  0.40240000  0.45580000  1.0
  Si4+  Si18  1  0.82145000  0.73573333  0.45580000  1.0
  Si4+  Si19  1  0.17855000  0.26426667  0.54420000  1.0
  Si4+  Si19  1  0.17855000  0.59760000  0.54420000  1.0
  Si4+  Si19  1  0.17855000  0.93093333  0.54420000  1.0
  O2-  O1  1  0.01305000  0.04043333  0.86370000  1.0
  O2-  O1  1  0.01305000  0.37376667  0.86370000  1.0
  O2-  O1  1  0.01305000  0.70710000  0.86370000  1.0
  O2-  O1  1  0.51305000  0.04043333  0.86370000  1.0
  O2-  O1  1  0.51305000  0.37376667  0.86370000  1.0
  O2-  O1  1  0.51305000  0.70710000  0.86370000  1.0
  O2-  O1  1  0.48695000  0.29290000  0.13630000  1.0
  O2-  O1  1  0.48695000  0.62623333  0.13630000  1.0
  O2-  O1  1  0.48695000  0.95956667  0.13630000  1.0
  O2-  O1  1  0.98695000  0.29290000  0.13630000  1.0
  O2-  O1  1  0.98695000  0.62623333  0.13630000  1.0
  O2-  O1  1  0.98695000  0.95956667  0.13630000  1.0
  O2-  O2  1  0.36490000  0.14046667  0.44880000  1.0
  O2-  O2  1  0.36490000  0.47380000  0.44880000  1.0
  O2-  O2  1  0.36490000  0.80713333  0.44880000  1.0
  O2-  O2  1  0.86490000  0.14046667  0.44880000  1.0
  O2-  O2  1  0.86490000  0.47380000  0.44880000  1.0
  O2-  O2  1  0.86490000  0.80713333  0.44880000  1.0
  O2-  O2  1  0.13510000  0.19286667  0.55120000  1.0
  O2-  O2  1  0.13510000  0.52620000  0.55120000  1.0
  O2-  O2  1  0.13510000  0.85953333  0.55120000  1.0
  O2-  O2  1  0.63510000  0.19286667  0.55120000  1.0
  O2-  O2  1  0.63510000  0.52620000  0.55120000  1.0
  O2-  O2  1  0.63510000  0.85953333  0.55120000  1.0
  O2-  O3  1  0.40765000  0.09063333  0.09530000  1.0
  O2-  O3  1  0.40765000  0.42396667  0.09530000  1.0
  O2-  O3  1  0.40765000  0.75730000  0.09530000  1.0
  O2-  O3  1  0.90765000  0.09063333  0.09530000  1.0
  O2-  O3  1  0.90765000  0.42396667  0.09530000  1.0
  O2-  O3  1  0.90765000  0.75730000  0.09530000  1.0
  O2-  O3  1  0.09235000  0.24270000  0.90470000  1.0
  O2-  O3  1  0.09235000  0.57603333  0.90470000  1.0
  O2-  O3  1  0.09235000  0.90936667  0.90470000  1.0
  O2-  O3  1  0.59235000  0.24270000  0.90470000  1.0
  O2-  O3  1  0.59235000  0.57603333  0.90470000  1.0
  O2-  O3  1  0.59235000  0.90936667  0.90470000  1.0
  O2-  O4  1  0.37230000  0.01106667  0.34560000  1.0
  O2-  O4  1  0.37230000  0.34440000  0.34560000  1.0
  O2-  O4  1  0.37230000  0.67773333  0.34560000  1.0
  O2-  O4  1  0.87230000  0.01106667  0.34560000  1.0
  O2-  O4  1  0.87230000  0.34440000  0.34560000  1.0
  O2-  O4  1  0.87230000  0.67773333  0.34560000  1.0
  O2-  O4  1  0.12770000  0.32226667  0.65440000  1.0
  O2-  O4  1  0.12770000  0.65560000  0.65440000  1.0
  O2-  O4  1  0.12770000  0.98893333  0.65440000  1.0
  O2-  O4  1  0.62770000  0.32226667  0.65440000  1.0
  O2-  O4  1  0.62770000  0.65560000  0.65440000  1.0
  O2-  O4  1  0.62770000  0.98893333  0.65440000  1.0
  O2-  O5  1  0.35935000  0.09236667  0.71650000  1.0
  O2-  O5  1  0.35935000  0.42570000  0.71650000  1.0
  O2-  O5  1  0.35935000  0.75903333  0.71650000  1.0
  O2-  O5  1  0.85935000  0.09236667  0.71650000  1.0
  O2-  O5  1  0.85935000  0.42570000  0.71650000  1.0
  O2-  O5  1  0.85935000  0.75903333  0.71650000  1.0
  O2-  O5  1  0.14065000  0.24096667  0.28350000  1.0
  O2-  O5  1  0.14065000  0.57430000  0.28350000  1.0
  O2-  O5  1  0.14065000  0.90763333  0.28350000  1.0
  O2-  O5  1  0.64065000  0.24096667  0.28350000  1.0
  O2-  O5  1  0.64065000  0.57430000  0.28350000  1.0
  O2-  O5  1  0.64065000  0.90763333  0.28350000  1.0
  O2-  O6  1  0.40130000  0.22263333  0.29890000  1.0
  O2-  O6  1  0.40130000  0.55596667  0.29890000  1.0
  O2-  O6  1  0.40130000  0.88930000  0.29890000  1.0
  O2-  O6  1  0.90130000  0.22263333  0.29890000  1.0
  O2-  O6  1  0.90130000  0.55596667  0.29890000  1.0
  O2-  O6  1  0.90130000  0.88930000  0.29890000  1.0
  O2-  O6  1  0.09870000  0.11070000  0.70110000  1.0
  O2-  O6  1  0.09870000  0.44403333  0.70110000  1.0
  O2-  O6  1  0.09870000  0.77736667  0.70110000  1.0
  O2-  O6  1  0.59870000  0.11070000  0.70110000  1.0
  O2-  O6  1  0.59870000  0.44403333  0.70110000  1.0
  O2-  O6  1  0.59870000  0.77736667  0.70110000  1.0
  O2-  O7  1  0.30800000  0.29853333  0.68480000  1.0
  O2-  O7  1  0.30800000  0.63186667  0.68480000  1.0
  O2-  O7  1  0.30800000  0.96520000  0.68480000  1.0
  O2-  O7  1  0.80800000  0.29853333  0.68480000  1.0
  O2-  O7  1  0.80800000  0.63186667  0.68480000  1.0
  O2-  O7  1  0.80800000  0.96520000  0.68480000  1.0
  O2-  O7  1  0.19200000  0.03480000  0.31520000  1.0
  O2-  O7  1  0.19200000  0.36813333  0.31520000  1.0
  O2-  O7  1  0.19200000  0.70146667  0.31520000  1.0
  O2-  O7  1  0.69200000  0.03480000  0.31520000  1.0
  O2-  O7  1  0.69200000  0.36813333  0.31520000  1.0
  O2-  O7  1  0.69200000  0.70146667  0.31520000  1.0
  O2-  O8  1  0.27930000  0.22386667  0.93760000  1.0
  O2-  O8  1  0.27930000  0.55720000  0.93760000  1.0
  O2-  O8  1  0.27930000  0.89053333  0.93760000  1.0
  O2-  O8  1  0.77930000  0.22386667  0.93760000  1.0
  O2-  O8  1  0.77930000  0.55720000  0.93760000  1.0
  O2-  O8  1  0.77930000  0.89053333  0.93760000  1.0
  O2-  O8  1  0.22070000  0.10946667  0.06240000  1.0
  O2-  O8  1  0.22070000  0.44280000  0.06240000  1.0
  O2-  O8  1  0.22070000  0.77613333  0.06240000  1.0
  O2-  O8  1  0.72070000  0.10946667  0.06240000  1.0
  O2-  O8  1  0.72070000  0.44280000  0.06240000  1.0
  O2-  O8  1  0.72070000  0.77613333  0.06240000  1.0
