# generated using pymatgen
data_Li30Sb9PS40
_symmetry_space_group_name_H-M   'P 1'
_cell_length_a   7.95606000
_cell_length_b   31.80985000
_cell_length_c   13.65472000
_cell_angle_alpha   90.00000000
_cell_angle_beta   90.00000000
_cell_angle_gamma   90.00000000
_symmetry_Int_Tables_number   1
_chemical_formula_structural   Li30Sb9PS40
_chemical_formula_sum   'Li60 Sb18 P2 S80'
_cell_volume   3455.75121903
_cell_formula_units_Z   2
loop_
 _symmetry_equiv_pos_site_id
 _symmetry_equiv_pos_as_xyz
  1  'x, y, z'
loop_
 _atom_type_symbol
 _atom_type_oxidation_number
  Li+  1.0
  Sb5+  5.0
  P5+  5.0
  S2-  -2.0
loop_
 _atom_site_type_symbol
 _atom_site_label
 _atom_site_symmetry_multiplicity
 _atom_site_fract_x
 _atom_site_fract_y
 _atom_site_fract_z
 _atom_site_occupancy
  Li+  Li0  1  0.25420000  0.89962000  0.66300000  1.0
  Li+  Li1  1  0.25420000  0.89962000  0.16300000  1.0
  Li+  Li2  1  0.25420000  0.69962000  0.66300000  1.0
  Li+  Li3  1  0.25787253  0.69899521  0.16511709  1.0
  Li+  Li4  1  0.25466184  0.49928159  0.66135104  1.0
  Li+  Li5  1  0.25439111  0.49730622  0.16085589  1.0
  Li+  Li6  1  0.25578619  0.29802915  0.66495998  1.0
  Li+  Li7  1  0.25178826  0.29953594  0.15729871  1.0
  Li+  Li8  1  0.25420000  0.09962000  0.66300000  1.0
  Li+  Li9  1  0.25149884  0.10211562  0.16302988  1.0
  Li+  Li10  1  0.24580000  0.99962000  0.33700000  1.0
  Li+  Li11  1  0.24781857  0.99853675  0.83566771  1.0
  Li+  Li12  1  0.24580000  0.79962000  0.33700000  1.0
  Li+  Li13  1  0.24580000  0.79962000  0.83700000  1.0
  Li+  Li14  1  0.24580000  0.59962000  0.33700000  1.0
  Li+  Li15  1  0.25052662  0.60038119  0.83839688  1.0
  Li+  Li16  1  0.24580000  0.39962000  0.33700000  1.0
  Li+  Li17  1  0.24580000  0.39962000  0.83700000  1.0
  Li+  Li18  1  0.24580000  0.19962000  0.33700000  1.0
  Li+  Li19  1  0.24580000  0.19962000  0.83700000  1.0
  Li+  Li20  1  0.75420000  0.99962000  0.33700000  1.0
  Li+  Li21  1  0.75420000  0.99962000  0.83700000  1.0
  Li+  Li22  1  0.75420000  0.79962000  0.33700000  1.0
  Li+  Li23  1  0.75420000  0.79962000  0.83700000  1.0
  Li+  Li24  1  0.75420000  0.59962000  0.33700000  1.0
  Li+  Li25  1  0.75420000  0.59962000  0.83700000  1.0
  Li+  Li26  1  0.75420000  0.39962000  0.33700000  1.0
  Li+  Li27  1  0.75420000  0.39962000  0.83700000  1.0
  Li+  Li28  1  0.75420000  0.19962000  0.33700000  1.0
  Li+  Li29  1  0.75420000  0.19962000  0.83700000  1.0
  Li+  Li30  1  0.74580000  0.89962000  0.66300000  1.0
  Li+  Li31  1  0.74612231  0.90205116  0.16023666  1.0
  Li+  Li32  1  0.74580000  0.69962000  0.66300000  1.0
  Li+  Li33  1  0.74580000  0.69962000  0.16300000  1.0
  Li+  Li34  1  0.74619909  0.49559806  0.66154545  1.0
  Li+  Li35  1  0.74580000  0.49962000  0.16300000  1.0
  Li+  Li36  1  0.74580000  0.29962000  0.66300000  1.0
  Li+  Li37  1  0.74580000  0.29962000  0.16300000  1.0
  Li+  Li38  1  0.74693579  0.10501836  0.66613040  1.0
  Li+  Li39  1  0.74580000  0.09962000  0.16300000  1.0
  Li+  Li40  1  0.00264619  0.89591463  0.42491427  1.0
  Li+  Li41  1  0.99621519  0.89498344  0.92220649  1.0
  Li+  Li42  1  0.00000000  0.69780000  0.42340000  1.0
  Li+  Li43  1  0.00000000  0.69780000  0.92340000  1.0
  Li+  Li44  1  0.99746260  0.49905784  0.42445621  1.0
  Li+  Li45  1  0.00000000  0.49780000  0.92340000  1.0
  Li+  Li46  1  0.00000000  0.29780000  0.42340000  1.0
  Li+  Li47  1  0.00000000  0.29780000  0.92340000  1.0
  Li+  Li48  1  0.00000000  0.09780000  0.42340000  1.0
  Li+  Li49  1  0.00000000  0.09780000  0.92340000  1.0
  Li+  Li50  1  0.49797927  0.99689519  0.57810996  1.0
  Li+  Li51  1  0.50000000  0.99780000  0.07660000  1.0
  Li+  Li52  1  0.50006859  0.79572061  0.57491942  1.0
  Li+  Li53  1  0.50000000  0.79780000  0.07660000  1.0
  Li+  Li54  1  0.50000000  0.59780000  0.57660000  1.0
  Li+  Li55  1  0.50000000  0.59780000  0.07660000  1.0
  Li+  Li56  1  0.49830505  0.39944850  0.57801245  1.0
  Li+  Li57  1  0.50000000  0.39780000  0.07660000  1.0
  Li+  Li58  1  0.50000000  0.19780000  0.57660000  1.0
  Li+  Li59  1  0.49989896  0.19927306  0.07633699  1.0
  Sb5+  Sb60  1  0.00000000  0.00000000  0.58658000  1.0
  Sb5+  Sb61  1  0.00000000  0.00000000  0.08658000  1.0
  Sb5+  Sb62  1  0.00000000  0.80000000  0.58658000  1.0
  Sb5+  Sb63  1  0.00000000  0.80000000  0.08658000  1.0
  Sb5+  Sb64  1  0.00343082  0.59928161  0.58621526  1.0
  Sb5+  Sb65  1  0.00000000  0.60000000  0.08658000  1.0
  Sb5+  Sb66  1  0.00000000  0.20000000  0.58658000  1.0
  Sb5+  Sb67  1  0.99851909  0.20232857  0.08785304  1.0
  Sb5+  Sb68  1  0.49811741  0.89792668  0.41348488  1.0
  Sb5+  Sb69  1  0.50000000  0.90000000  0.91342000  1.0
  Sb5+  Sb70  1  0.50000000  0.70000000  0.41342000  1.0
  Sb5+  Sb71  1  0.50000000  0.70000000  0.91342000  1.0
  Sb5+  Sb72  1  0.49739028  0.49931459  0.41319772  1.0
  Sb5+  Sb73  1  0.50000000  0.50000000  0.91342000  1.0
  Sb5+  Sb74  1  0.50000000  0.30000000  0.41342000  1.0
  Sb5+  Sb75  1  0.50000000  0.30000000  0.91342000  1.0
  Sb5+  Sb76  1  0.50000000  0.10000000  0.41342000  1.0
  Sb5+  Sb77  1  0.50000000  0.10000000  0.91342000  1.0
  P5+  P78  1  0.00000000  0.40000000  0.58658000  1.0
  P5+  P79  1  0.00000000  0.40000000  0.08658000  1.0
  S2-  S80  1  0.23860000  0.97603200  0.66640000  1.0
  S2-  S81  1  0.23860000  0.97603200  0.16640000  1.0
  S2-  S82  1  0.24084997  0.77645912  0.66610011  1.0
  S2-  S83  1  0.23860000  0.77603200  0.16640000  1.0
  S2-  S84  1  0.23860000  0.57603200  0.66640000  1.0
  S2-  S85  1  0.23860000  0.57603200  0.16640000  1.0
  S2-  S86  1  0.23860000  0.37603200  0.66640000  1.0
  S2-  S87  1  0.23971411  0.37565660  0.16704937  1.0
  S2-  S88  1  0.23860000  0.17603200  0.66640000  1.0
  S2-  S89  1  0.23860000  0.17603200  0.16640000  1.0
  S2-  S90  1  0.26140000  0.87603200  0.33360000  1.0
  S2-  S91  1  0.26140000  0.87603200  0.83360000  1.0
  S2-  S92  1  0.26140000  0.67603200  0.33360000  1.0
  S2-  S93  1  0.26140000  0.67603200  0.83360000  1.0
  S2-  S94  1  0.25888895  0.47742202  0.33472252  1.0
  S2-  S95  1  0.26140000  0.47603200  0.83360000  1.0
  S2-  S96  1  0.25923795  0.27822374  0.33318455  1.0
  S2-  S97  1  0.26139190  0.27267907  0.83604394  1.0
  S2-  S98  1  0.26479687  0.07559686  0.33100806  1.0
  S2-  S99  1  0.25587059  0.07523636  0.83728437  1.0
  S2-  S100  1  0.73860000  0.87603200  0.33360000  1.0
  S2-  S101  1  0.73860000  0.87603200  0.83360000  1.0
  S2-  S102  1  0.74056679  0.67500551  0.32883907  1.0
  S2-  S103  1  0.73860000  0.67603200  0.83360000  1.0
  S2-  S104  1  0.73860000  0.47603200  0.33360000  1.0
  S2-  S105  1  0.73860000  0.47603200  0.83360000  1.0
  S2-  S106  1  0.73860000  0.27603200  0.33360000  1.0
  S2-  S107  1  0.73860000  0.27603200  0.83360000  1.0
  S2-  S108  1  0.73860000  0.07603200  0.33360000  1.0
  S2-  S109  1  0.73860000  0.07603200  0.83360000  1.0
  S2-  S110  1  0.76140000  0.97603200  0.66640000  1.0
  S2-  S111  1  0.76140000  0.97603200  0.16640000  1.0
  S2-  S112  1  0.76140000  0.77603200  0.66640000  1.0
  S2-  S113  1  0.76140000  0.77603200  0.16640000  1.0
  S2-  S114  1  0.76140000  0.57603200  0.66640000  1.0
  S2-  S115  1  0.76140000  0.57603200  0.16640000  1.0
  S2-  S116  1  0.76140000  0.37603200  0.66640000  1.0
  S2-  S117  1  0.76140000  0.37603200  0.16640000  1.0
  S2-  S118  1  0.76140000  0.17603200  0.66640000  1.0
  S2-  S119  1  0.75854455  0.17716467  0.16372190  1.0
  S2-  S120  1  0.00058652  0.97597801  0.42901215  1.0
  S2-  S121  1  0.00000000  0.97570000  0.92725000  1.0
  S2-  S122  1  0.00000000  0.77570000  0.42725000  1.0
  S2-  S123  1  0.00000000  0.77570000  0.92725000  1.0
  S2-  S124  1  0.00000000  0.57570000  0.42725000  1.0
  S2-  S125  1  0.00000000  0.57570000  0.92725000  1.0
  S2-  S126  1  0.00000000  0.37570000  0.42725000  1.0
  S2-  S127  1  0.00000000  0.37570000  0.92725000  1.0
  S2-  S128  1  0.00000000  0.17570000  0.42725000  1.0
  S2-  S129  1  0.00000000  0.17570000  0.92725000  1.0
  S2-  S130  1  0.50000000  0.87570000  0.57275000  1.0
  S2-  S131  1  0.50000000  0.87570000  0.07275000  1.0
  S2-  S132  1  0.50000000  0.67570000  0.57275000  1.0
  S2-  S133  1  0.50000000  0.67570000  0.07275000  1.0
  S2-  S134  1  0.50000000  0.47570000  0.57275000  1.0
  S2-  S135  1  0.49898203  0.47642186  0.06923728  1.0
  S2-  S136  1  0.49853758  0.27165127  0.57279526  1.0
  S2-  S137  1  0.50000000  0.27570000  0.07275000  1.0
  S2-  S138  1  0.49650687  0.07463789  0.57544668  1.0
  S2-  S139  1  0.50000000  0.07570000  0.07275000  1.0
  S2-  S140  1  0.00000000  0.87260000  0.59115000  1.0
  S2-  S141  1  0.00000000  0.87260000  0.09115000  1.0
  S2-  S142  1  0.99845346  0.67297634  0.58761927  1.0
  S2-  S143  1  0.00000000  0.67260000  0.09115000  1.0
  S2-  S144  1  0.00000000  0.47260000  0.59115000  1.0
  S2-  S145  1  0.00000000  0.47260000  0.09115000  1.0
  S2-  S146  1  0.00393658  0.27110501  0.58866207  1.0
  S2-  S147  1  0.00000000  0.27260000  0.09115000  1.0
  S2-  S148  1  0.00005075  0.07234922  0.59244388  1.0
  S2-  S149  1  0.00000000  0.07260000  0.09115000  1.0
  S2-  S150  1  0.50000000  0.97260000  0.40885000  1.0
  S2-  S151  1  0.50152137  0.96827205  0.91004907  1.0
  S2-  S152  1  0.50000000  0.77260000  0.40885000  1.0
  S2-  S153  1  0.50000000  0.77260000  0.90885000  1.0
  S2-  S154  1  0.50000000  0.57260000  0.40885000  1.0
  S2-  S155  1  0.50000000  0.57260000  0.90885000  1.0
  S2-  S156  1  0.50000000  0.37260000  0.40885000  1.0
  S2-  S157  1  0.49827557  0.37232432  0.90904983  1.0
  S2-  S158  1  0.50000000  0.17260000  0.40885000  1.0
  S2-  S159  1  0.50000000  0.17260000  0.90885000  1.0
