# generated using pymatgen
data_Li30Sb9PS40
_symmetry_space_group_name_H-M   'P 1'
_cell_length_a   7.95606000
_cell_length_b   13.65472000
_cell_length_c   31.80985000
_cell_angle_alpha   90.00000000
_cell_angle_beta   90.00000000
_cell_angle_gamma   90.00000000
_symmetry_Int_Tables_number   1
_chemical_formula_structural   Li30Sb9PS40
_chemical_formula_sum   'Li60 Sb18 P2 S80'
_cell_volume   3455.75121903
_cell_formula_units_Z   2
loop_
 _symmetry_equiv_pos_site_id
 _symmetry_equiv_pos_as_xyz
  1  'x, y, z'
loop_
 _atom_type_symbol
 _atom_type_oxidation_number
  Li+  1.0
  Sb5+  5.0
  P5+  5.0
  S2-  -2.0
loop_
 _atom_site_type_symbol
 _atom_site_label
 _atom_site_symmetry_multiplicity
 _atom_site_fract_x
 _atom_site_fract_y
 _atom_site_fract_z
 _atom_site_occupancy
  Li+  Li1  1  0.25420000  0.08700000  0.10038000  1.0
  Li+  Li1  1  0.25420000  0.58700000  0.10038000  1.0
  Li+  Li1  1  0.25420000  0.08700000  0.30038000  1.0
  Li+  Li1  1  0.25420000  0.58700000  0.30038000  1.0
  Li+  Li1  1  0.25420000  0.08700000  0.50038000  1.0
  Li+  Li1  1  0.25420000  0.58700000  0.50038000  1.0
  Li+  Li1  1  0.25420000  0.08700000  0.70038000  1.0
  Li+  Li1  1  0.25420000  0.58700000  0.70038000  1.0
  Li+  Li1  1  0.25420000  0.08700000  0.90038000  1.0
  Li+  Li1  1  0.25420000  0.58700000  0.90038000  1.0
  Li+  Li1  1  0.24580000  0.41300000  0.00038000  1.0
  Li+  Li1  1  0.24580000  0.91300000  0.00038000  1.0
  Li+  Li1  1  0.24580000  0.41300000  0.20038000  1.0
  Li+  Li1  1  0.24580000  0.91300000  0.20038000  1.0
  Li+  Li1  1  0.24580000  0.41300000  0.40038000  1.0
  Li+  Li1  1  0.24580000  0.91300000  0.40038000  1.0
  Li+  Li1  1  0.24580000  0.41300000  0.60038000  1.0
  Li+  Li1  1  0.24580000  0.91300000  0.60038000  1.0
  Li+  Li1  1  0.24580000  0.41300000  0.80038000  1.0
  Li+  Li1  1  0.24580000  0.91300000  0.80038000  1.0
  Li+  Li1  1  0.75420000  0.41300000  0.00038000  1.0
  Li+  Li1  1  0.75420000  0.91300000  0.00038000  1.0
  Li+  Li1  1  0.75420000  0.41300000  0.20038000  1.0
  Li+  Li1  1  0.75420000  0.91300000  0.20038000  1.0
  Li+  Li1  1  0.75420000  0.41300000  0.40038000  1.0
  Li+  Li1  1  0.75420000  0.91300000  0.40038000  1.0
  Li+  Li1  1  0.75420000  0.41300000  0.60038000  1.0
  Li+  Li1  1  0.75420000  0.91300000  0.60038000  1.0
  Li+  Li1  1  0.75420000  0.41300000  0.80038000  1.0
  Li+  Li1  1  0.75420000  0.91300000  0.80038000  1.0
  Li+  Li1  1  0.74580000  0.08700000  0.10038000  1.0
  Li+  Li1  1  0.74580000  0.58700000  0.10038000  1.0
  Li+  Li1  1  0.74580000  0.08700000  0.30038000  1.0
  Li+  Li1  1  0.74580000  0.58700000  0.30038000  1.0
  Li+  Li1  1  0.74580000  0.08700000  0.50038000  1.0
  Li+  Li1  1  0.74580000  0.58700000  0.50038000  1.0
  Li+  Li1  1  0.74580000  0.08700000  0.70038000  1.0
  Li+  Li1  1  0.74580000  0.58700000  0.70038000  1.0
  Li+  Li1  1  0.74580000  0.08700000  0.90038000  1.0
  Li+  Li1  1  0.74580000  0.58700000  0.90038000  1.0
  Li+  Li2  1  0.00000000  0.32660000  0.10220000  1.0
  Li+  Li2  1  0.00000000  0.82660000  0.10220000  1.0
  Li+  Li2  1  0.00000000  0.32660000  0.30220000  1.0
  Li+  Li2  1  0.00000000  0.82660000  0.30220000  1.0
  Li+  Li2  1  0.00000000  0.32660000  0.50220000  1.0
  Li+  Li2  1  0.00000000  0.82660000  0.50220000  1.0
  Li+  Li2  1  0.00000000  0.32660000  0.70220000  1.0
  Li+  Li2  1  0.00000000  0.82660000  0.70220000  1.0
  Li+  Li2  1  0.00000000  0.32660000  0.90220000  1.0
  Li+  Li2  1  0.00000000  0.82660000  0.90220000  1.0
  Li+  Li2  1  0.50000000  0.17340000  0.00220000  1.0
  Li+  Li2  1  0.50000000  0.67340000  0.00220000  1.0
  Li+  Li2  1  0.50000000  0.17340000  0.20220000  1.0
  Li+  Li2  1  0.50000000  0.67340000  0.20220000  1.0
  Li+  Li2  1  0.50000000  0.17340000  0.40220000  1.0
  Li+  Li2  1  0.50000000  0.67340000  0.40220000  1.0
  Li+  Li2  1  0.50000000  0.17340000  0.60220000  1.0
  Li+  Li2  1  0.50000000  0.67340000  0.60220000  1.0
  Li+  Li2  1  0.50000000  0.17340000  0.80220000  1.0
  Li+  Li2  1  0.50000000  0.67340000  0.80220000  1.0
  Sb5+  Sb30  1  0.00000000  0.16342000  0.00000000  1.0
  Sb5+  Sb30  1  0.00000000  0.66342000  0.00000000  1.0
  Sb5+  Sb31  1  0.00000000  0.16342000  0.20000000  1.0
  Sb5+  Sb31  1  0.00000000  0.66342000  0.20000000  1.0
  Sb5+  Sb32  1  0.00000000  0.16342000  0.40000000  1.0
  Sb5+  Sb32  1  0.00000000  0.66342000  0.40000000  1.0
  Sb5+  Sb33  1  0.00000000  0.16342000  0.80000000  1.0
  Sb5+  Sb33  1  0.00000000  0.66342000  0.80000000  1.0
  Sb5+  Sb34  1  0.50000000  0.33658000  0.10000000  1.0
  Sb5+  Sb34  1  0.50000000  0.83658000  0.10000000  1.0
  Sb5+  Sb35  1  0.50000000  0.33658000  0.30000000  1.0
  Sb5+  Sb35  1  0.50000000  0.83658000  0.30000000  1.0
  Sb5+  Sb36  1  0.50000000  0.33658000  0.50000000  1.0
  Sb5+  Sb36  1  0.50000000  0.83658000  0.50000000  1.0
  Sb5+  Sb37  1  0.50000000  0.33658000  0.70000000  1.0
  Sb5+  Sb37  1  0.50000000  0.83658000  0.70000000  1.0
  Sb5+  Sb38  1  0.50000000  0.33658000  0.90000000  1.0
  Sb5+  Sb38  1  0.50000000  0.83658000  0.90000000  1.0
  P5+  P39  1  0.00000000  0.16342000  0.60000000  1.0
  P5+  P39  1  0.00000000  0.66342000  0.60000000  1.0
  S2-  S1  1  0.23860000  0.08360000  0.02396800  1.0
  S2-  S1  1  0.23860000  0.58360000  0.02396800  1.0
  S2-  S1  1  0.23860000  0.08360000  0.22396800  1.0
  S2-  S1  1  0.23860000  0.58360000  0.22396800  1.0
  S2-  S1  1  0.23860000  0.08360000  0.42396800  1.0
  S2-  S1  1  0.23860000  0.58360000  0.42396800  1.0
  S2-  S1  1  0.23860000  0.08360000  0.62396800  1.0
  S2-  S1  1  0.23860000  0.58360000  0.62396800  1.0
  S2-  S1  1  0.23860000  0.08360000  0.82396800  1.0
  S2-  S1  1  0.23860000  0.58360000  0.82396800  1.0
  S2-  S1  1  0.26140000  0.41640000  0.12396800  1.0
  S2-  S1  1  0.26140000  0.91640000  0.12396800  1.0
  S2-  S1  1  0.26140000  0.41640000  0.32396800  1.0
  S2-  S1  1  0.26140000  0.91640000  0.32396800  1.0
  S2-  S1  1  0.26140000  0.41640000  0.52396800  1.0
  S2-  S1  1  0.26140000  0.91640000  0.52396800  1.0
  S2-  S1  1  0.26140000  0.41640000  0.72396800  1.0
  S2-  S1  1  0.26140000  0.91640000  0.72396800  1.0
  S2-  S1  1  0.26140000  0.41640000  0.92396800  1.0
  S2-  S1  1  0.26140000  0.91640000  0.92396800  1.0
  S2-  S1  1  0.73860000  0.41640000  0.12396800  1.0
  S2-  S1  1  0.73860000  0.91640000  0.12396800  1.0
  S2-  S1  1  0.73860000  0.41640000  0.32396800  1.0
  S2-  S1  1  0.73860000  0.91640000  0.32396800  1.0
  S2-  S1  1  0.73860000  0.41640000  0.52396800  1.0
  S2-  S1  1  0.73860000  0.91640000  0.52396800  1.0
  S2-  S1  1  0.73860000  0.41640000  0.72396800  1.0
  S2-  S1  1  0.73860000  0.91640000  0.72396800  1.0
  S2-  S1  1  0.73860000  0.41640000  0.92396800  1.0
  S2-  S1  1  0.73860000  0.91640000  0.92396800  1.0
  S2-  S1  1  0.76140000  0.08360000  0.02396800  1.0
  S2-  S1  1  0.76140000  0.58360000  0.02396800  1.0
  S2-  S1  1  0.76140000  0.08360000  0.22396800  1.0
  S2-  S1  1  0.76140000  0.58360000  0.22396800  1.0
  S2-  S1  1  0.76140000  0.08360000  0.42396800  1.0
  S2-  S1  1  0.76140000  0.58360000  0.42396800  1.0
  S2-  S1  1  0.76140000  0.08360000  0.62396800  1.0
  S2-  S1  1  0.76140000  0.58360000  0.62396800  1.0
  S2-  S1  1  0.76140000  0.08360000  0.82396800  1.0
  S2-  S1  1  0.76140000  0.58360000  0.82396800  1.0
  S2-  S2  1  0.00000000  0.32275000  0.02430000  1.0
  S2-  S2  1  0.00000000  0.82275000  0.02430000  1.0
  S2-  S2  1  0.00000000  0.32275000  0.22430000  1.0
  S2-  S2  1  0.00000000  0.82275000  0.22430000  1.0
  S2-  S2  1  0.00000000  0.32275000  0.42430000  1.0
  S2-  S2  1  0.00000000  0.82275000  0.42430000  1.0
  S2-  S2  1  0.00000000  0.32275000  0.62430000  1.0
  S2-  S2  1  0.00000000  0.82275000  0.62430000  1.0
  S2-  S2  1  0.00000000  0.32275000  0.82430000  1.0
  S2-  S2  1  0.00000000  0.82275000  0.82430000  1.0
  S2-  S2  1  0.50000000  0.17725000  0.12430000  1.0
  S2-  S2  1  0.50000000  0.67725000  0.12430000  1.0
  S2-  S2  1  0.50000000  0.17725000  0.32430000  1.0
  S2-  S2  1  0.50000000  0.67725000  0.32430000  1.0
  S2-  S2  1  0.50000000  0.17725000  0.52430000  1.0
  S2-  S2  1  0.50000000  0.67725000  0.52430000  1.0
  S2-  S2  1  0.50000000  0.17725000  0.72430000  1.0
  S2-  S2  1  0.50000000  0.67725000  0.72430000  1.0
  S2-  S2  1  0.50000000  0.17725000  0.92430000  1.0
  S2-  S2  1  0.50000000  0.67725000  0.92430000  1.0
  S2-  S3  1  0.00000000  0.15885000  0.12740000  1.0
  S2-  S3  1  0.00000000  0.65885000  0.12740000  1.0
  S2-  S3  1  0.00000000  0.15885000  0.32740000  1.0
  S2-  S3  1  0.00000000  0.65885000  0.32740000  1.0
  S2-  S3  1  0.00000000  0.15885000  0.52740000  1.0
  S2-  S3  1  0.00000000  0.65885000  0.52740000  1.0
  S2-  S3  1  0.00000000  0.15885000  0.72740000  1.0
  S2-  S3  1  0.00000000  0.65885000  0.72740000  1.0
  S2-  S3  1  0.00000000  0.15885000  0.92740000  1.0
  S2-  S3  1  0.00000000  0.65885000  0.92740000  1.0
  S2-  S3  1  0.50000000  0.34115000  0.02740000  1.0
  S2-  S3  1  0.50000000  0.84115000  0.02740000  1.0
  S2-  S3  1  0.50000000  0.34115000  0.22740000  1.0
  S2-  S3  1  0.50000000  0.84115000  0.22740000  1.0
  S2-  S3  1  0.50000000  0.34115000  0.42740000  1.0
  S2-  S3  1  0.50000000  0.84115000  0.42740000  1.0
  S2-  S3  1  0.50000000  0.34115000  0.62740000  1.0
  S2-  S3  1  0.50000000  0.84115000  0.62740000  1.0
  S2-  S3  1  0.50000000  0.34115000  0.82740000  1.0
  S2-  S3  1  0.50000000  0.84115000  0.82740000  1.0
