# generated using pymatgen
data_Li3B(PO4)2
_symmetry_space_group_name_H-M   'P 1'
_cell_length_a   10.37760000
_cell_length_b   22.23540000
_cell_length_c   7.67350000
_cell_angle_alpha   101.17900000
_cell_angle_beta   105.06700000
_cell_angle_gamma   90.33500000
_symmetry_Int_Tables_number   1
_chemical_formula_structural   Li3B(PO4)2
_chemical_formula_sum   'Li36 B12 P24 O96'
_cell_volume   1674.38976277
_cell_formula_units_Z   12
loop_
 _symmetry_equiv_pos_site_id
 _symmetry_equiv_pos_as_xyz
  1  'x, y, z'
loop_
 _atom_type_symbol
 _atom_type_oxidation_number
  Li+  1.0
  B3+  3.0
  P5+  5.0
  O2-  -2.0
loop_
 _atom_site_type_symbol
 _atom_site_label
 _atom_site_symmetry_multiplicity
 _atom_site_fract_x
 _atom_site_fract_y
 _atom_site_fract_z
 _atom_site_occupancy
  Li+  Li1  1  0.11215000  0.28890000  0.69220000  1.0
  Li+  Li1  1  0.11215000  0.62223333  0.69220000  1.0
  Li+  Li1  1  0.11215000  0.95556667  0.69220000  1.0
  Li+  Li1  1  0.61215000  0.28890000  0.69220000  1.0
  Li+  Li1  1  0.61215000  0.62223333  0.69220000  1.0
  Li+  Li1  1  0.61215000  0.95556667  0.69220000  1.0
  Li+  Li1  1  0.38785000  0.04443333  0.30780000  1.0
  Li+  Li1  1  0.38785000  0.37776667  0.30780000  1.0
  Li+  Li1  1  0.38785000  0.71110000  0.30780000  1.0
  Li+  Li1  1  0.88785000  0.04443333  0.30780000  1.0
  Li+  Li1  1  0.88785000  0.37776667  0.30780000  1.0
  Li+  Li1  1  0.88785000  0.71110000  0.30780000  1.0
  Li+  Li2  1  0.16510000  0.17346667  0.85450000  1.0
  Li+  Li2  1  0.16510000  0.50680000  0.85450000  1.0
  Li+  Li2  1  0.16510000  0.84013333  0.85450000  1.0
  Li+  Li2  1  0.66510000  0.17346667  0.85450000  1.0
  Li+  Li2  1  0.66510000  0.50680000  0.85450000  1.0
  Li+  Li2  1  0.66510000  0.84013333  0.85450000  1.0
  Li+  Li2  1  0.33490000  0.15986667  0.14550000  1.0
  Li+  Li2  1  0.33490000  0.49320000  0.14550000  1.0
  Li+  Li2  1  0.33490000  0.82653333  0.14550000  1.0
  Li+  Li2  1  0.83490000  0.15986667  0.14550000  1.0
  Li+  Li2  1  0.83490000  0.49320000  0.14550000  1.0
  Li+  Li2  1  0.83490000  0.82653333  0.14550000  1.0
  Li+  Li3  1  0.43065000  0.15576667  0.61210000  1.0
  Li+  Li3  1  0.43065000  0.48910000  0.61210000  1.0
  Li+  Li3  1  0.43065000  0.82243333  0.61210000  1.0
  Li+  Li3  1  0.93065000  0.15576667  0.61210000  1.0
  Li+  Li3  1  0.93065000  0.48910000  0.61210000  1.0
  Li+  Li3  1  0.93065000  0.82243333  0.61210000  1.0
  Li+  Li3  1  0.06935000  0.17756667  0.38790000  1.0
  Li+  Li3  1  0.06935000  0.51090000  0.38790000  1.0
  Li+  Li3  1  0.06935000  0.84423333  0.38790000  1.0
  Li+  Li3  1  0.56935000  0.17756667  0.38790000  1.0
  Li+  Li3  1  0.56935000  0.51090000  0.38790000  1.0
  Li+  Li3  1  0.56935000  0.84423333  0.38790000  1.0
  B3+  B1  1  0.37080000  0.01283333  0.76840000  1.0
  B3+  B1  1  0.37080000  0.34616667  0.76840000  1.0
  B3+  B1  1  0.37080000  0.67950000  0.76840000  1.0
  B3+  B1  1  0.87080000  0.01283333  0.76840000  1.0
  B3+  B1  1  0.87080000  0.34616667  0.76840000  1.0
  B3+  B1  1  0.87080000  0.67950000  0.76840000  1.0
  B3+  B1  1  0.12920000  0.32050000  0.23160000  1.0
  B3+  B1  1  0.12920000  0.65383333  0.23160000  1.0
  B3+  B1  1  0.12920000  0.98716667  0.23160000  1.0
  B3+  B1  1  0.62920000  0.32050000  0.23160000  1.0
  B3+  B1  1  0.62920000  0.65383333  0.23160000  1.0
  B3+  B1  1  0.62920000  0.98716667  0.23160000  1.0
  P5+  P1  1  0.31440000  0.26169333  0.44999000  1.0
  P5+  P1  1  0.31440000  0.59502667  0.44999000  1.0
  P5+  P1  1  0.31440000  0.92836000  0.44999000  1.0
  P5+  P1  1  0.81440000  0.26169333  0.44999000  1.0
  P5+  P1  1  0.81440000  0.59502667  0.44999000  1.0
  P5+  P1  1  0.81440000  0.92836000  0.44999000  1.0
  P5+  P1  1  0.18560000  0.07164000  0.55001000  1.0
  P5+  P1  1  0.18560000  0.40497333  0.55001000  1.0
  P5+  P1  1  0.18560000  0.73830667  0.55001000  1.0
  P5+  P1  1  0.68560000  0.07164000  0.55001000  1.0
  P5+  P1  1  0.68560000  0.40497333  0.55001000  1.0
  P5+  P1  1  0.68560000  0.73830667  0.55001000  1.0
  P5+  P2  1  0.44155500  0.24968667  0.94495000  1.0
  P5+  P2  1  0.44155500  0.58302000  0.94495000  1.0
  P5+  P2  1  0.44155500  0.91635333  0.94495000  1.0
  P5+  P2  1  0.94155500  0.24968667  0.94495000  1.0
  P5+  P2  1  0.94155500  0.58302000  0.94495000  1.0
  P5+  P2  1  0.94155500  0.91635333  0.94495000  1.0
  P5+  P2  1  0.05844500  0.08364667  0.05505000  1.0
  P5+  P2  1  0.05844500  0.41698000  0.05505000  1.0
  P5+  P2  1  0.05844500  0.75031333  0.05505000  1.0
  P5+  P2  1  0.55844500  0.08364667  0.05505000  1.0
  P5+  P2  1  0.55844500  0.41698000  0.05505000  1.0
  P5+  P2  1  0.55844500  0.75031333  0.05505000  1.0
  O2-  O1  1  0.47355000  0.06230000  0.85180000  1.0
  O2-  O1  1  0.47355000  0.39563333  0.85180000  1.0
  O2-  O1  1  0.47355000  0.72896667  0.85180000  1.0
  O2-  O1  1  0.97355000  0.06230000  0.85180000  1.0
  O2-  O1  1  0.97355000  0.39563333  0.85180000  1.0
  O2-  O1  1  0.97355000  0.72896667  0.85180000  1.0
  O2-  O1  1  0.02645000  0.27103333  0.14820000  1.0
  O2-  O1  1  0.02645000  0.60436667  0.14820000  1.0
  O2-  O1  1  0.02645000  0.93770000  0.14820000  1.0
  O2-  O1  1  0.52645000  0.27103333  0.14820000  1.0
  O2-  O1  1  0.52645000  0.60436667  0.14820000  1.0
  O2-  O1  1  0.52645000  0.93770000  0.14820000  1.0
  O2-  O2  1  0.26320000  0.29583333  0.28490000  1.0
  O2-  O2  1  0.26320000  0.62916667  0.28490000  1.0
  O2-  O2  1  0.26320000  0.96250000  0.28490000  1.0
  O2-  O2  1  0.76320000  0.29583333  0.28490000  1.0
  O2-  O2  1  0.76320000  0.62916667  0.28490000  1.0
  O2-  O2  1  0.76320000  0.96250000  0.28490000  1.0
  O2-  O2  1  0.23680000  0.03750000  0.71510000  1.0
  O2-  O2  1  0.23680000  0.37083333  0.71510000  1.0
  O2-  O2  1  0.23680000  0.70416667  0.71510000  1.0
  O2-  O2  1  0.73680000  0.03750000  0.71510000  1.0
  O2-  O2  1  0.73680000  0.37083333  0.71510000  1.0
  O2-  O2  1  0.73680000  0.70416667  0.71510000  1.0
  O2-  O3  1  0.03015000  0.23176667  0.81640000  1.0
  O2-  O3  1  0.03015000  0.56510000  0.81640000  1.0
  O2-  O3  1  0.03015000  0.89843333  0.81640000  1.0
  O2-  O3  1  0.53015000  0.23176667  0.81640000  1.0
  O2-  O3  1  0.53015000  0.56510000  0.81640000  1.0
  O2-  O3  1  0.53015000  0.89843333  0.81640000  1.0
  O2-  O3  1  0.46985000  0.10156667  0.18360000  1.0
  O2-  O3  1  0.46985000  0.43490000  0.18360000  1.0
  O2-  O3  1  0.46985000  0.76823333  0.18360000  1.0
  O2-  O3  1  0.96985000  0.10156667  0.18360000  1.0
  O2-  O3  1  0.96985000  0.43490000  0.18360000  1.0
  O2-  O3  1  0.96985000  0.76823333  0.18360000  1.0
  O2-  O4  1  0.39885000  0.21066667  0.39450000  1.0
  O2-  O4  1  0.39885000  0.54400000  0.39450000  1.0
  O2-  O4  1  0.39885000  0.87733333  0.39450000  1.0
  O2-  O4  1  0.89885000  0.21066667  0.39450000  1.0
  O2-  O4  1  0.89885000  0.54400000  0.39450000  1.0
  O2-  O4  1  0.89885000  0.87733333  0.39450000  1.0
  O2-  O4  1  0.10115000  0.12266667  0.60550000  1.0
  O2-  O4  1  0.10115000  0.45600000  0.60550000  1.0
  O2-  O4  1  0.10115000  0.78933333  0.60550000  1.0
  O2-  O4  1  0.60115000  0.12266667  0.60550000  1.0
  O2-  O4  1  0.60115000  0.45600000  0.60550000  1.0
  O2-  O4  1  0.60115000  0.78933333  0.60550000  1.0
  O2-  O5  1  0.35915000  0.30580000  0.89390000  1.0
  O2-  O5  1  0.35915000  0.63913333  0.89390000  1.0
  O2-  O5  1  0.35915000  0.97246667  0.89390000  1.0
  O2-  O5  1  0.85915000  0.30580000  0.89390000  1.0
  O2-  O5  1  0.85915000  0.63913333  0.89390000  1.0
  O2-  O5  1  0.85915000  0.97246667  0.89390000  1.0
  O2-  O5  1  0.14085000  0.02753333  0.10610000  1.0
  O2-  O5  1  0.14085000  0.36086667  0.10610000  1.0
  O2-  O5  1  0.14085000  0.69420000  0.10610000  1.0
  O2-  O5  1  0.64085000  0.02753333  0.10610000  1.0
  O2-  O5  1  0.64085000  0.36086667  0.10610000  1.0
  O2-  O5  1  0.64085000  0.69420000  0.10610000  1.0
  O2-  O6  1  0.34775000  0.19780000  0.94090000  1.0
  O2-  O6  1  0.34775000  0.53113333  0.94090000  1.0
  O2-  O6  1  0.34775000  0.86446667  0.94090000  1.0
  O2-  O6  1  0.84775000  0.19780000  0.94090000  1.0
  O2-  O6  1  0.84775000  0.53113333  0.94090000  1.0
  O2-  O6  1  0.84775000  0.86446667  0.94090000  1.0
  O2-  O6  1  0.15225000  0.13553333  0.05910000  1.0
  O2-  O6  1  0.15225000  0.46886667  0.05910000  1.0
  O2-  O6  1  0.15225000  0.80220000  0.05910000  1.0
  O2-  O6  1  0.65225000  0.13553333  0.05910000  1.0
  O2-  O6  1  0.65225000  0.46886667  0.05910000  1.0
  O2-  O6  1  0.65225000  0.80220000  0.05910000  1.0
  O2-  O7  1  0.40845000  0.31196667  0.60430000  1.0
  O2-  O7  1  0.40845000  0.64530000  0.60430000  1.0
  O2-  O7  1  0.40845000  0.97863333  0.60430000  1.0
  O2-  O7  1  0.90845000  0.31196667  0.60430000  1.0
  O2-  O7  1  0.90845000  0.64530000  0.60430000  1.0
  O2-  O7  1  0.90845000  0.97863333  0.60430000  1.0
  O2-  O7  1  0.09155000  0.02136667  0.39570000  1.0
  O2-  O7  1  0.09155000  0.35470000  0.39570000  1.0
  O2-  O7  1  0.09155000  0.68803333  0.39570000  1.0
  O2-  O7  1  0.59155000  0.02136667  0.39570000  1.0
  O2-  O7  1  0.59155000  0.35470000  0.39570000  1.0
  O2-  O7  1  0.59155000  0.68803333  0.39570000  1.0
  O2-  O8  1  0.20000000  0.24163333  0.51530000  1.0
  O2-  O8  1  0.20000000  0.57496667  0.51530000  1.0
  O2-  O8  1  0.20000000  0.90830000  0.51530000  1.0
  O2-  O8  1  0.70000000  0.24163333  0.51530000  1.0
  O2-  O8  1  0.70000000  0.57496667  0.51530000  1.0
  O2-  O8  1  0.70000000  0.90830000  0.51530000  1.0
  O2-  O8  1  0.30000000  0.09170000  0.48470000  1.0
  O2-  O8  1  0.30000000  0.42503333  0.48470000  1.0
  O2-  O8  1  0.30000000  0.75836667  0.48470000  1.0
  O2-  O8  1  0.80000000  0.09170000  0.48470000  1.0
  O2-  O8  1  0.80000000  0.42503333  0.48470000  1.0
  O2-  O8  1  0.80000000  0.75836667  0.48470000  1.0
