# generated using pymatgen
data_Li30Sb7P3S40
_symmetry_space_group_name_H-M   'P 1'
_cell_length_a   7.93192000
_cell_length_b   31.59790000
_cell_length_c   13.58910000
_cell_angle_alpha   90.00000000
_cell_angle_beta   90.00000000
_cell_angle_gamma   90.00000000
_symmetry_Int_Tables_number   1
_chemical_formula_structural   Li30Sb7P3S40
_chemical_formula_sum   'Li60 Sb14 P6 S80'
_cell_volume   3405.86351460
_cell_formula_units_Z   2
loop_
 _symmetry_equiv_pos_site_id
 _symmetry_equiv_pos_as_xyz
  1  'x, y, z'
loop_
 _atom_type_symbol
 _atom_type_oxidation_number
  Li+  1.0
  Sb5+  5.0
  P5+  5.0
  S2-  -2.0
loop_
 _atom_site_type_symbol
 _atom_site_label
 _atom_site_symmetry_multiplicity
 _atom_site_fract_x
 _atom_site_fract_y
 _atom_site_fract_z
 _atom_site_occupancy
  Li+  Li0  1  0.25066135  0.89651464  0.66173968  1.0
  Li+  Li1  1  0.25550000  0.90038000  0.16215000  1.0
  Li+  Li2  1  0.25550000  0.70038000  0.66215000  1.0
  Li+  Li3  1  0.25513880  0.70548499  0.16281390  1.0
  Li+  Li4  1  0.25550000  0.50038000  0.66215000  1.0
  Li+  Li5  1  0.25550000  0.50038000  0.16215000  1.0
  Li+  Li6  1  0.25550000  0.30038000  0.66215000  1.0
  Li+  Li7  1  0.25582825  0.29842691  0.16580942  1.0
  Li+  Li8  1  0.25550000  0.10038000  0.66215000  1.0
  Li+  Li9  1  0.25550000  0.10038000  0.16215000  1.0
  Li+  Li10  1  0.24266004  0.79890413  0.33506034  1.0
  Li+  Li11  1  0.24450000  0.80038000  0.83785000  1.0
  Li+  Li12  1  0.24450000  0.60038000  0.33785000  1.0
  Li+  Li13  1  0.24450000  0.60038000  0.83785000  1.0
  Li+  Li14  1  0.24450000  0.40038000  0.33785000  1.0
  Li+  Li15  1  0.24450000  0.40038000  0.83785000  1.0
  Li+  Li16  1  0.24450000  0.20038000  0.33785000  1.0
  Li+  Li17  1  0.24450000  0.20038000  0.83785000  1.0
  Li+  Li18  1  0.24321588  0.99793913  0.33737482  1.0
  Li+  Li19  1  0.24450000  0.00038000  0.83785000  1.0
  Li+  Li20  1  0.75561931  0.79790271  0.33893208  1.0
  Li+  Li21  1  0.75550000  0.80038000  0.83785000  1.0
  Li+  Li22  1  0.75550000  0.60038000  0.33785000  1.0
  Li+  Li23  1  0.75550000  0.60038000  0.83785000  1.0
  Li+  Li24  1  0.75550000  0.40038000  0.33785000  1.0
  Li+  Li25  1  0.75579902  0.40104971  0.83504486  1.0
  Li+  Li26  1  0.75550000  0.20038000  0.33785000  1.0
  Li+  Li27  1  0.75456152  0.20375153  0.83439025  1.0
  Li+  Li28  1  0.75550000  0.00038000  0.33785000  1.0
  Li+  Li29  1  0.75550000  0.00038000  0.83785000  1.0
  Li+  Li30  1  0.74530834  0.90418456  0.66040597  1.0
  Li+  Li31  1  0.74450000  0.90038000  0.16215000  1.0
  Li+  Li32  1  0.74450000  0.70038000  0.66215000  1.0
  Li+  Li33  1  0.74450000  0.70038000  0.16215000  1.0
  Li+  Li34  1  0.74450000  0.50038000  0.66215000  1.0
  Li+  Li35  1  0.74450000  0.50038000  0.16215000  1.0
  Li+  Li36  1  0.74450000  0.30038000  0.66215000  1.0
  Li+  Li37  1  0.74450000  0.30038000  0.16215000  1.0
  Li+  Li38  1  0.74760321  0.10127154  0.65866367  1.0
  Li+  Li39  1  0.74403822  0.09495346  0.15837003  1.0
  Li+  Li40  1  0.00000000  0.89540000  0.42325000  1.0
  Li+  Li41  1  0.00000000  0.89540000  0.92325000  1.0
  Li+  Li42  1  0.99885040  0.69725368  0.42108530  1.0
  Li+  Li43  1  0.00000000  0.69540000  0.92325000  1.0
  Li+  Li44  1  0.00000000  0.49540000  0.42325000  1.0
  Li+  Li45  1  0.00000000  0.49540000  0.92325000  1.0
  Li+  Li46  1  0.00000000  0.29540000  0.42325000  1.0
  Li+  Li47  1  0.00000000  0.29540000  0.92325000  1.0
  Li+  Li48  1  0.00000000  0.09540000  0.42325000  1.0
  Li+  Li49  1  0.00000000  0.09540000  0.92325000  1.0
  Li+  Li50  1  0.50138308  0.99797701  0.57653081  1.0
  Li+  Li51  1  0.50000000  0.99540000  0.07675000  1.0
  Li+  Li52  1  0.50000000  0.79540000  0.57675000  1.0
  Li+  Li53  1  0.50000000  0.79540000  0.07675000  1.0
  Li+  Li54  1  0.50000000  0.59540000  0.57675000  1.0
  Li+  Li55  1  0.50000000  0.59540000  0.07675000  1.0
  Li+  Li56  1  0.50000000  0.39540000  0.57675000  1.0
  Li+  Li57  1  0.50305546  0.39398712  0.07364309  1.0
  Li+  Li58  1  0.50000000  0.19540000  0.57675000  1.0
  Li+  Li59  1  0.49989395  0.19421510  0.07780913  1.0
  Sb5+  Sb60  1  0.00000000  0.80000000  0.58690500  1.0
  Sb5+  Sb61  1  0.00000000  0.80000000  0.08690500  1.0
  Sb5+  Sb62  1  0.00000000  0.60000000  0.58690500  1.0
  Sb5+  Sb63  1  0.99919015  0.59878318  0.08530488  1.0
  Sb5+  Sb64  1  0.00274715  0.39922252  0.58974794  1.0
  Sb5+  Sb65  1  0.00000000  0.40000000  0.08690500  1.0
  Sb5+  Sb66  1  0.00040853  0.19827734  0.59000927  1.0
  Sb5+  Sb67  1  0.00000000  0.20000000  0.08690500  1.0
  Sb5+  Sb68  1  0.50000000  0.90000000  0.41309500  1.0
  Sb5+  Sb69  1  0.49930932  0.89794011  0.91373099  1.0
  Sb5+  Sb70  1  0.50279235  0.69846681  0.41408730  1.0
  Sb5+  Sb71  1  0.50000000  0.70000000  0.91309500  1.0
  Sb5+  Sb72  1  0.50000000  0.50000000  0.41309500  1.0
  Sb5+  Sb73  1  0.50000000  0.50000000  0.91309500  1.0
  P5+  P74  1  0.99838201  0.99942997  0.58761309  1.0
  P5+  P75  1  0.99610776  0.99761137  0.08156271  1.0
  P5+  P76  1  0.50000000  0.30000000  0.41309500  1.0
  P5+  P77  1  0.50160122  0.30357797  0.91096291  1.0
  P5+  P78  1  0.50000000  0.10000000  0.41309500  1.0
  P5+  P79  1  0.50000000  0.10000000  0.91309500  1.0
  S2-  S80  1  0.23497000  0.97622000  0.66645000  1.0
  S2-  S81  1  0.23624564  0.97712299  0.16737728  1.0
  S2-  S82  1  0.23497000  0.77622000  0.66645000  1.0
  S2-  S83  1  0.23497000  0.77622000  0.16645000  1.0
  S2-  S84  1  0.23497000  0.57622000  0.66645000  1.0
  S2-  S85  1  0.23497000  0.57622000  0.16645000  1.0
  S2-  S86  1  0.23120142  0.37456133  0.66602703  1.0
  S2-  S87  1  0.23497000  0.37622000  0.16645000  1.0
  S2-  S88  1  0.23802038  0.17828809  0.66955514  1.0
  S2-  S89  1  0.23497000  0.17622000  0.16645000  1.0
  S2-  S90  1  0.26503000  0.87622000  0.33355000  1.0
  S2-  S91  1  0.26503000  0.87622000  0.83355000  1.0
  S2-  S92  1  0.26503000  0.67622000  0.33355000  1.0
  S2-  S93  1  0.26503000  0.67622000  0.83355000  1.0
  S2-  S94  1  0.26503000  0.47622000  0.33355000  1.0
  S2-  S95  1  0.26503000  0.47622000  0.83355000  1.0
  S2-  S96  1  0.26503000  0.27622000  0.33355000  1.0
  S2-  S97  1  0.26503000  0.27622000  0.83355000  1.0
  S2-  S98  1  0.26503000  0.07622000  0.33355000  1.0
  S2-  S99  1  0.26503000  0.07622000  0.83355000  1.0
  S2-  S100  1  0.73497000  0.87622000  0.33355000  1.0
  S2-  S101  1  0.73497000  0.87622000  0.83355000  1.0
  S2-  S102  1  0.73497000  0.67622000  0.33355000  1.0
  S2-  S103  1  0.73497000  0.67622000  0.83355000  1.0
  S2-  S104  1  0.73497000  0.47622000  0.33355000  1.0
  S2-  S105  1  0.73767457  0.47664618  0.83333154  1.0
  S2-  S106  1  0.73497000  0.27622000  0.33355000  1.0
  S2-  S107  1  0.73497000  0.27622000  0.83355000  1.0
  S2-  S108  1  0.73497000  0.07622000  0.33355000  1.0
  S2-  S109  1  0.73497000  0.07622000  0.83355000  1.0
  S2-  S110  1  0.76503000  0.97622000  0.66645000  1.0
  S2-  S111  1  0.76503000  0.97622000  0.16645000  1.0
  S2-  S112  1  0.76503000  0.77622000  0.66645000  1.0
  S2-  S113  1  0.76389565  0.77526150  0.16752639  1.0
  S2-  S114  1  0.76397992  0.57582500  0.66714001  1.0
  S2-  S115  1  0.76503000  0.57622000  0.16645000  1.0
  S2-  S116  1  0.76503000  0.37622000  0.66645000  1.0
  S2-  S117  1  0.76503000  0.37622000  0.16645000  1.0
  S2-  S118  1  0.76696490  0.17406630  0.67102635  1.0
  S2-  S119  1  0.76503000  0.17622000  0.16645000  1.0
  S2-  S120  1  0.00000000  0.97624000  0.43015000  1.0
  S2-  S121  1  0.00000000  0.97624000  0.93015000  1.0
  S2-  S122  1  0.00000000  0.77624000  0.43015000  1.0
  S2-  S123  1  0.00000000  0.77624000  0.93015000  1.0
  S2-  S124  1  0.00000000  0.57624000  0.43015000  1.0
  S2-  S125  1  0.00000000  0.57624000  0.93015000  1.0
  S2-  S126  1  0.00083754  0.37982863  0.42628821  1.0
  S2-  S127  1  0.99904634  0.37281032  0.93043071  1.0
  S2-  S128  1  0.99657964  0.17893192  0.43227467  1.0
  S2-  S129  1  0.00000000  0.17624000  0.93015000  1.0
  S2-  S130  1  0.49910031  0.87427580  0.56854727  1.0
  S2-  S131  1  0.50000000  0.87624000  0.06985000  1.0
  S2-  S132  1  0.50000000  0.67624000  0.56985000  1.0
  S2-  S133  1  0.50373930  0.67553537  0.06997056  1.0
  S2-  S134  1  0.49980314  0.47529410  0.57153433  1.0
  S2-  S135  1  0.50000000  0.47624000  0.06985000  1.0
  S2-  S136  1  0.50000000  0.27624000  0.56985000  1.0
  S2-  S137  1  0.49766946  0.27822649  0.07051821  1.0
  S2-  S138  1  0.50000000  0.07624000  0.56985000  1.0
  S2-  S139  1  0.50000000  0.07624000  0.06985000  1.0
  S2-  S140  1  0.00000000  0.87192000  0.59170000  1.0
  S2-  S141  1  0.00000000  0.87192000  0.09170000  1.0
  S2-  S142  1  0.00000000  0.67192000  0.59170000  1.0
  S2-  S143  1  0.99658743  0.67405817  0.09496836  1.0
  S2-  S144  1  0.00000000  0.47192000  0.59170000  1.0
  S2-  S145  1  0.00000000  0.47192000  0.09170000  1.0
  S2-  S146  1  0.00000000  0.27192000  0.59170000  1.0
  S2-  S147  1  0.00000000  0.27192000  0.09170000  1.0
  S2-  S148  1  0.00000000  0.07192000  0.59170000  1.0
  S2-  S149  1  0.00000000  0.07192000  0.09170000  1.0
  S2-  S150  1  0.50000000  0.97192000  0.40830000  1.0
  S2-  S151  1  0.50000000  0.97192000  0.90830000  1.0
  S2-  S152  1  0.50000000  0.77192000  0.40830000  1.0
  S2-  S153  1  0.50424360  0.77113267  0.90649485  1.0
  S2-  S154  1  0.50000000  0.57192000  0.40830000  1.0
  S2-  S155  1  0.50000000  0.57192000  0.90830000  1.0
  S2-  S156  1  0.50000000  0.37192000  0.40830000  1.0
  S2-  S157  1  0.50000000  0.37192000  0.90830000  1.0
  S2-  S158  1  0.50000000  0.17192000  0.40830000  1.0
  S2-  S159  1  0.49751061  0.16974231  0.91142918  1.0
