# generated using pymatgen
data_Li30Sb7P3S40
_symmetry_space_group_name_H-M   'P 1'
_cell_length_a   7.93192000
_cell_length_b   13.58910000
_cell_length_c   31.59790000
_cell_angle_alpha   90.00000000
_cell_angle_beta   90.00000000
_cell_angle_gamma   90.00000000
_symmetry_Int_Tables_number   1
_chemical_formula_structural   Li30Sb7P3S40
_chemical_formula_sum   'Li60 Sb14 P6 S80'
_cell_volume   3405.86351460
_cell_formula_units_Z   2
loop_
 _symmetry_equiv_pos_site_id
 _symmetry_equiv_pos_as_xyz
  1  'x, y, z'
loop_
 _atom_type_symbol
 _atom_type_oxidation_number
  Li+  1.0
  Sb5+  5.0
  P5+  5.0
  S2-  -2.0
loop_
 _atom_site_type_symbol
 _atom_site_label
 _atom_site_symmetry_multiplicity
 _atom_site_fract_x
 _atom_site_fract_y
 _atom_site_fract_z
 _atom_site_occupancy
  Li+  Li1  1  0.25550000  0.08785000  0.09962000  1.0
  Li+  Li1  1  0.25550000  0.58785000  0.09962000  1.0
  Li+  Li1  1  0.25550000  0.08785000  0.29962000  1.0
  Li+  Li1  1  0.25550000  0.58785000  0.29962000  1.0
  Li+  Li1  1  0.25550000  0.08785000  0.49962000  1.0
  Li+  Li1  1  0.25550000  0.58785000  0.49962000  1.0
  Li+  Li1  1  0.25550000  0.08785000  0.69962000  1.0
  Li+  Li1  1  0.25550000  0.58785000  0.69962000  1.0
  Li+  Li1  1  0.25550000  0.08785000  0.89962000  1.0
  Li+  Li1  1  0.25550000  0.58785000  0.89962000  1.0
  Li+  Li1  1  0.24450000  0.41215000  0.19962000  1.0
  Li+  Li1  1  0.24450000  0.91215000  0.19962000  1.0
  Li+  Li1  1  0.24450000  0.41215000  0.39962000  1.0
  Li+  Li1  1  0.24450000  0.91215000  0.39962000  1.0
  Li+  Li1  1  0.24450000  0.41215000  0.59962000  1.0
  Li+  Li1  1  0.24450000  0.91215000  0.59962000  1.0
  Li+  Li1  1  0.24450000  0.41215000  0.79962000  1.0
  Li+  Li1  1  0.24450000  0.91215000  0.79962000  1.0
  Li+  Li1  1  0.24450000  0.41215000  0.99962000  1.0
  Li+  Li1  1  0.24450000  0.91215000  0.99962000  1.0
  Li+  Li1  1  0.75550000  0.41215000  0.19962000  1.0
  Li+  Li1  1  0.75550000  0.91215000  0.19962000  1.0
  Li+  Li1  1  0.75550000  0.41215000  0.39962000  1.0
  Li+  Li1  1  0.75550000  0.91215000  0.39962000  1.0
  Li+  Li1  1  0.75550000  0.41215000  0.59962000  1.0
  Li+  Li1  1  0.75550000  0.91215000  0.59962000  1.0
  Li+  Li1  1  0.75550000  0.41215000  0.79962000  1.0
  Li+  Li1  1  0.75550000  0.91215000  0.79962000  1.0
  Li+  Li1  1  0.75550000  0.41215000  0.99962000  1.0
  Li+  Li1  1  0.75550000  0.91215000  0.99962000  1.0
  Li+  Li1  1  0.74450000  0.08785000  0.09962000  1.0
  Li+  Li1  1  0.74450000  0.58785000  0.09962000  1.0
  Li+  Li1  1  0.74450000  0.08785000  0.29962000  1.0
  Li+  Li1  1  0.74450000  0.58785000  0.29962000  1.0
  Li+  Li1  1  0.74450000  0.08785000  0.49962000  1.0
  Li+  Li1  1  0.74450000  0.58785000  0.49962000  1.0
  Li+  Li1  1  0.74450000  0.08785000  0.69962000  1.0
  Li+  Li1  1  0.74450000  0.58785000  0.69962000  1.0
  Li+  Li1  1  0.74450000  0.08785000  0.89962000  1.0
  Li+  Li1  1  0.74450000  0.58785000  0.89962000  1.0
  Li+  Li2  1  0.00000000  0.32675000  0.10460000  1.0
  Li+  Li2  1  0.00000000  0.82675000  0.10460000  1.0
  Li+  Li2  1  0.00000000  0.32675000  0.30460000  1.0
  Li+  Li2  1  0.00000000  0.82675000  0.30460000  1.0
  Li+  Li2  1  0.00000000  0.32675000  0.50460000  1.0
  Li+  Li2  1  0.00000000  0.82675000  0.50460000  1.0
  Li+  Li2  1  0.00000000  0.32675000  0.70460000  1.0
  Li+  Li2  1  0.00000000  0.82675000  0.70460000  1.0
  Li+  Li2  1  0.00000000  0.32675000  0.90460000  1.0
  Li+  Li2  1  0.00000000  0.82675000  0.90460000  1.0
  Li+  Li2  1  0.50000000  0.17325000  0.00460000  1.0
  Li+  Li2  1  0.50000000  0.67325000  0.00460000  1.0
  Li+  Li2  1  0.50000000  0.17325000  0.20460000  1.0
  Li+  Li2  1  0.50000000  0.67325000  0.20460000  1.0
  Li+  Li2  1  0.50000000  0.17325000  0.40460000  1.0
  Li+  Li2  1  0.50000000  0.67325000  0.40460000  1.0
  Li+  Li2  1  0.50000000  0.17325000  0.60460000  1.0
  Li+  Li2  1  0.50000000  0.67325000  0.60460000  1.0
  Li+  Li2  1  0.50000000  0.17325000  0.80460000  1.0
  Li+  Li2  1  0.50000000  0.67325000  0.80460000  1.0
  Sb5+  Sb30  1  0.00000000  0.16309500  0.20000000  1.0
  Sb5+  Sb30  1  0.00000000  0.66309500  0.20000000  1.0
  Sb5+  Sb31  1  0.00000000  0.16309500  0.40000000  1.0
  Sb5+  Sb31  1  0.00000000  0.66309500  0.40000000  1.0
  Sb5+  Sb32  1  0.00000000  0.16309500  0.60000000  1.0
  Sb5+  Sb32  1  0.00000000  0.66309500  0.60000000  1.0
  Sb5+  Sb33  1  0.00000000  0.16309500  0.80000000  1.0
  Sb5+  Sb33  1  0.00000000  0.66309500  0.80000000  1.0
  Sb5+  Sb34  1  0.50000000  0.33690500  0.10000000  1.0
  Sb5+  Sb34  1  0.50000000  0.83690500  0.10000000  1.0
  Sb5+  Sb35  1  0.50000000  0.33690500  0.30000000  1.0
  Sb5+  Sb35  1  0.50000000  0.83690500  0.30000000  1.0
  Sb5+  Sb36  1  0.50000000  0.33690500  0.50000000  1.0
  Sb5+  Sb36  1  0.50000000  0.83690500  0.50000000  1.0
  P5+  P37  1  0.00000000  0.16309500  0.00000000  1.0
  P5+  P37  1  0.00000000  0.66309500  0.00000000  1.0
  P5+  P38  1  0.50000000  0.33690500  0.70000000  1.0
  P5+  P38  1  0.50000000  0.83690500  0.70000000  1.0
  P5+  P39  1  0.50000000  0.33690500  0.90000000  1.0
  P5+  P39  1  0.50000000  0.83690500  0.90000000  1.0
  S2-  S1  1  0.23497000  0.08355000  0.02378000  1.0
  S2-  S1  1  0.23497000  0.58355000  0.02378000  1.0
  S2-  S1  1  0.23497000  0.08355000  0.22378000  1.0
  S2-  S1  1  0.23497000  0.58355000  0.22378000  1.0
  S2-  S1  1  0.23497000  0.08355000  0.42378000  1.0
  S2-  S1  1  0.23497000  0.58355000  0.42378000  1.0
  S2-  S1  1  0.23497000  0.08355000  0.62378000  1.0
  S2-  S1  1  0.23497000  0.58355000  0.62378000  1.0
  S2-  S1  1  0.23497000  0.08355000  0.82378000  1.0
  S2-  S1  1  0.23497000  0.58355000  0.82378000  1.0
  S2-  S1  1  0.26503000  0.41645000  0.12378000  1.0
  S2-  S1  1  0.26503000  0.91645000  0.12378000  1.0
  S2-  S1  1  0.26503000  0.41645000  0.32378000  1.0
  S2-  S1  1  0.26503000  0.91645000  0.32378000  1.0
  S2-  S1  1  0.26503000  0.41645000  0.52378000  1.0
  S2-  S1  1  0.26503000  0.91645000  0.52378000  1.0
  S2-  S1  1  0.26503000  0.41645000  0.72378000  1.0
  S2-  S1  1  0.26503000  0.91645000  0.72378000  1.0
  S2-  S1  1  0.26503000  0.41645000  0.92378000  1.0
  S2-  S1  1  0.26503000  0.91645000  0.92378000  1.0
  S2-  S1  1  0.73497000  0.41645000  0.12378000  1.0
  S2-  S1  1  0.73497000  0.91645000  0.12378000  1.0
  S2-  S1  1  0.73497000  0.41645000  0.32378000  1.0
  S2-  S1  1  0.73497000  0.91645000  0.32378000  1.0
  S2-  S1  1  0.73497000  0.41645000  0.52378000  1.0
  S2-  S1  1  0.73497000  0.91645000  0.52378000  1.0
  S2-  S1  1  0.73497000  0.41645000  0.72378000  1.0
  S2-  S1  1  0.73497000  0.91645000  0.72378000  1.0
  S2-  S1  1  0.73497000  0.41645000  0.92378000  1.0
  S2-  S1  1  0.73497000  0.91645000  0.92378000  1.0
  S2-  S1  1  0.76503000  0.08355000  0.02378000  1.0
  S2-  S1  1  0.76503000  0.58355000  0.02378000  1.0
  S2-  S1  1  0.76503000  0.08355000  0.22378000  1.0
  S2-  S1  1  0.76503000  0.58355000  0.22378000  1.0
  S2-  S1  1  0.76503000  0.08355000  0.42378000  1.0
  S2-  S1  1  0.76503000  0.58355000  0.42378000  1.0
  S2-  S1  1  0.76503000  0.08355000  0.62378000  1.0
  S2-  S1  1  0.76503000  0.58355000  0.62378000  1.0
  S2-  S1  1  0.76503000  0.08355000  0.82378000  1.0
  S2-  S1  1  0.76503000  0.58355000  0.82378000  1.0
  S2-  S2  1  0.00000000  0.31985000  0.02376000  1.0
  S2-  S2  1  0.00000000  0.81985000  0.02376000  1.0
  S2-  S2  1  0.00000000  0.31985000  0.22376000  1.0
  S2-  S2  1  0.00000000  0.81985000  0.22376000  1.0
  S2-  S2  1  0.00000000  0.31985000  0.42376000  1.0
  S2-  S2  1  0.00000000  0.81985000  0.42376000  1.0
  S2-  S2  1  0.00000000  0.31985000  0.62376000  1.0
  S2-  S2  1  0.00000000  0.81985000  0.62376000  1.0
  S2-  S2  1  0.00000000  0.31985000  0.82376000  1.0
  S2-  S2  1  0.00000000  0.81985000  0.82376000  1.0
  S2-  S2  1  0.50000000  0.18015000  0.12376000  1.0
  S2-  S2  1  0.50000000  0.68015000  0.12376000  1.0
  S2-  S2  1  0.50000000  0.18015000  0.32376000  1.0
  S2-  S2  1  0.50000000  0.68015000  0.32376000  1.0
  S2-  S2  1  0.50000000  0.18015000  0.52376000  1.0
  S2-  S2  1  0.50000000  0.68015000  0.52376000  1.0
  S2-  S2  1  0.50000000  0.18015000  0.72376000  1.0
  S2-  S2  1  0.50000000  0.68015000  0.72376000  1.0
  S2-  S2  1  0.50000000  0.18015000  0.92376000  1.0
  S2-  S2  1  0.50000000  0.68015000  0.92376000  1.0
  S2-  S3  1  0.00000000  0.15830000  0.12808000  1.0
  S2-  S3  1  0.00000000  0.65830000  0.12808000  1.0
  S2-  S3  1  0.00000000  0.15830000  0.32808000  1.0
  S2-  S3  1  0.00000000  0.65830000  0.32808000  1.0
  S2-  S3  1  0.00000000  0.15830000  0.52808000  1.0
  S2-  S3  1  0.00000000  0.65830000  0.52808000  1.0
  S2-  S3  1  0.00000000  0.15830000  0.72808000  1.0
  S2-  S3  1  0.00000000  0.65830000  0.72808000  1.0
  S2-  S3  1  0.00000000  0.15830000  0.92808000  1.0
  S2-  S3  1  0.00000000  0.65830000  0.92808000  1.0
  S2-  S3  1  0.50000000  0.34170000  0.02808000  1.0
  S2-  S3  1  0.50000000  0.84170000  0.02808000  1.0
  S2-  S3  1  0.50000000  0.34170000  0.22808000  1.0
  S2-  S3  1  0.50000000  0.84170000  0.22808000  1.0
  S2-  S3  1  0.50000000  0.34170000  0.42808000  1.0
  S2-  S3  1  0.50000000  0.84170000  0.42808000  1.0
  S2-  S3  1  0.50000000  0.34170000  0.62808000  1.0
  S2-  S3  1  0.50000000  0.84170000  0.62808000  1.0
  S2-  S3  1  0.50000000  0.34170000  0.82808000  1.0
  S2-  S3  1  0.50000000  0.84170000  0.82808000  1.0
