# generated using pymatgen
data_Li4B7ClO12
_symmetry_space_group_name_H-M   'P 1'
_cell_length_a   25.75495029
_cell_length_b   8.58498343
_cell_length_c   8.58498343
_cell_angle_alpha   60.00000000
_cell_angle_beta   120.00000000
_cell_angle_gamma   120.00000000
_symmetry_Int_Tables_number   1
_chemical_formula_structural   Li4B7ClO12
_chemical_formula_sum   'Li24 B42 Cl6 O72'
_cell_volume   1342.22288923
_cell_formula_units_Z   6
loop_
 _symmetry_equiv_pos_site_id
 _symmetry_equiv_pos_as_xyz
  1  'x, y, z'
loop_
 _atom_type_symbol
 _atom_type_oxidation_number
  Li+  1.0
  B3+  3.0
  Cl-  -1.0
  O2-  -2.0
loop_
 _atom_site_type_symbol
 _atom_site_label
 _atom_site_symmetry_multiplicity
 _atom_site_fract_x
 _atom_site_fract_y
 _atom_site_fract_z
 _atom_site_occupancy
  Li+  Li0  1  0.16570864  0.00237162  0.74953146  1.0
  Li+  Li1  1  0.50000000  0.00000000  0.75000000  1.0
  Li+  Li2  1  0.83333333  0.00000000  0.75000000  1.0
  Li+  Li3  1  0.16461482  0.50059554  0.75070157  1.0
  Li+  Li4  1  0.50000000  0.50000000  0.75000000  1.0
  Li+  Li5  1  0.83491479  0.50116237  0.74918164  1.0
  Li+  Li6  1  0.00000000  0.50000000  0.75000000  1.0
  Li+  Li7  1  0.33412584  0.50407799  0.75004239  1.0
  Li+  Li8  1  0.66666667  0.50000000  0.75000000  1.0
  Li+  Li9  1  0.00085434  0.99909869  0.25140399  1.0
  Li+  Li10  1  0.33333333  0.00000000  0.25000000  1.0
  Li+  Li11  1  0.66666667  0.00000000  0.25000000  1.0
  Li+  Li12  1  0.16666667  0.00000000  0.25000000  1.0
  Li+  Li13  1  0.50000000  0.00000000  0.25000000  1.0
  Li+  Li14  1  0.83333333  0.00000000  0.25000000  1.0
  Li+  Li15  1  0.00000000  0.50000000  0.25000000  1.0
  Li+  Li16  1  0.33333333  0.50000000  0.25000000  1.0
  Li+  Li17  1  0.66775533  0.49936604  0.24827148  1.0
  Li+  Li18  1  0.20973333  0.37080000  0.63760000  1.0
  Li+  Li19  1  0.54560292  0.36866517  0.63961980  1.0
  Li+  Li20  1  0.87640000  0.37080000  0.63760000  1.0
  Li+  Li21  1  0.04306667  0.87080000  0.13760000  1.0
  Li+  Li22  1  0.37628151  0.87144743  0.13362912  1.0
  Li+  Li23  1  0.70973333  0.87080000  0.13760000  1.0
  B3+  B24  1  0.08333333  0.25000000  0.00000000  1.0
  B3+  B25  1  0.41977148  0.24930320  0.99841224  1.0
  B3+  B26  1  0.75000000  0.25000000  0.00000000  1.0
  B3+  B27  1  0.08333333  0.75000000  0.00000000  1.0
  B3+  B28  1  0.41666667  0.75000000  0.00000000  1.0
  B3+  B29  1  0.75000000  0.75000000  0.00000000  1.0
  B3+  B30  1  0.25000000  0.75000000  0.00000000  1.0
  B3+  B31  1  0.58333333  0.75000000  0.00000000  1.0
  B3+  B32  1  0.91666667  0.75000000  0.00000000  1.0
  B3+  B33  1  0.25000000  0.25000000  0.50000000  1.0
  B3+  B34  1  0.58333333  0.25000000  0.50000000  1.0
  B3+  B35  1  0.91666667  0.25000000  0.50000000  1.0
  B3+  B36  1  0.08333333  0.25000000  0.50000000  1.0
  B3+  B37  1  0.41666667  0.25000000  0.50000000  1.0
  B3+  B38  1  0.75000000  0.25000000  0.50000000  1.0
  B3+  B39  1  0.25000000  0.75000000  0.50000000  1.0
  B3+  B40  1  0.58333333  0.75000000  0.50000000  1.0
  B3+  B41  1  0.91666667  0.75000000  0.50000000  1.0
  B3+  B42  1  0.13367327  0.60085864  0.95183031  1.0
  B3+  B43  1  0.46654667  0.60036000  0.94892000  1.0
  B3+  B44  1  0.79988000  0.60036000  0.94892000  1.0
  B3+  B45  1  0.13321333  0.19892000  0.35036000  1.0
  B3+  B46  1  0.46654667  0.19892000  0.35036000  1.0
  B3+  B47  1  0.79988000  0.19892000  0.35036000  1.0
  B3+  B48  1  0.26702667  0.60036000  0.35036000  1.0
  B3+  B49  1  0.60036000  0.60036000  0.35036000  1.0
  B3+  B50  1  0.93369333  0.60036000  0.35036000  1.0
  B3+  B51  1  0.13321333  0.60036000  0.35036000  1.0
  B3+  B52  1  0.46654667  0.60036000  0.35036000  1.0
  B3+  B53  1  0.79523328  0.60167749  0.35278320  1.0
  B3+  B54  1  0.10593396  0.09832696  0.84822503  1.0
  B3+  B55  1  0.43369333  0.10036000  0.85036000  1.0
  B3+  B56  1  0.76702667  0.10036000  0.85036000  1.0
  B3+  B57  1  0.29889057  0.70082148  0.85505634  1.0
  B3+  B58  1  0.63321333  0.69892000  0.85036000  1.0
  B3+  B59  1  0.96654667  0.69892000  0.85036000  1.0
  B3+  B60  1  0.29687498  0.10743524  0.45075551  1.0
  B3+  B61  1  0.63321333  0.10036000  0.44892000  1.0
  B3+  B62  1  0.96442617  0.09820191  0.45100538  1.0
  B3+  B63  1  0.30353378  0.09641852  0.85248781  1.0
  B3+  B64  1  0.63321333  0.10036000  0.85036000  1.0
  B3+  B65  1  0.96654667  0.10036000  0.85036000  1.0
  Cl-  Cl66  1  0.08333333  0.75000000  0.50000000  1.0
  Cl-  Cl67  1  0.41666667  0.75000000  0.50000000  1.0
  Cl-  Cl68  1  0.75000000  0.75000000  0.50000000  1.0
  Cl-  Cl69  1  0.25000000  0.25000000  0.00000000  1.0
  Cl-  Cl70  1  0.58333333  0.25000000  0.00000000  1.0
  Cl-  Cl71  1  0.91483914  0.25089266  0.00415805  1.0
  O2-  O72  1  0.18702333  0.75733000  0.94763000  1.0
  O2-  O73  1  0.52035667  0.75733000  0.94763000  1.0
  O2-  O74  1  0.85369000  0.75733000  0.94763000  1.0
  O2-  O75  1  0.12890391  0.43935397  0.94518902  1.0
  O2-  O76  1  0.46463000  0.43893000  0.94763000  1.0
  O2-  O77  1  0.79614668  0.44126787  0.94792291  1.0
  O2-  O78  1  0.08089000  0.60611000  0.94763000  1.0
  O2-  O79  1  0.41422333  0.60611000  0.94763000  1.0
  O2-  O80  1  0.74755667  0.60611000  0.94763000  1.0
  O2-  O81  1  0.13147803  0.19744177  0.50416300  1.0
  O2-  O82  1  0.46463000  0.19763000  0.50733000  1.0
  O2-  O83  1  0.79796333  0.19763000  0.50733000  1.0
  O2-  O84  1  0.08089000  0.19763000  0.18893000  1.0
  O2-  O85  1  0.41422333  0.19763000  0.18893000  1.0
  O2-  O86  1  0.74755667  0.19763000  0.18893000  1.0
  O2-  O87  1  0.18787221  0.19357649  0.35055747  1.0
  O2-  O88  1  0.52035667  0.19763000  0.35611000  1.0
  O2-  O89  1  0.85746291  0.19851096  0.35787352  1.0
  O2-  O90  1  0.26745667  0.60611000  0.18893000  1.0
  O2-  O91  1  0.60214316  0.60550374  0.18523733  1.0
  O2-  O92  1  0.93412333  0.60611000  0.18893000  1.0
  O2-  O93  1  0.26745667  0.75733000  0.35611000  1.0
  O2-  O94  1  0.60079000  0.75733000  0.35611000  1.0
  O2-  O95  1  0.93412333  0.75733000  0.35611000  1.0
  O2-  O96  1  0.27051382  0.43943725  0.50973587  1.0
  O2-  O97  1  0.60454335  0.43822669  0.50134531  1.0
  O2-  O98  1  0.93412333  0.43893000  0.50733000  1.0
  O2-  O99  1  0.08089000  0.43893000  0.35611000  1.0
  O2-  O100  1  0.41422333  0.43893000  0.35611000  1.0
  O2-  O101  1  0.74755667  0.43893000  0.35611000  1.0
  O2-  O102  1  0.18702333  0.60611000  0.50733000  1.0
  O2-  O103  1  0.52219926  0.61058025  0.50696976  1.0
  O2-  O104  1  0.85369000  0.60611000  0.50733000  1.0
  O2-  O105  1  0.13129667  0.75733000  0.18893000  1.0
  O2-  O106  1  0.46463000  0.75733000  0.18893000  1.0
  O2-  O107  1  0.79796333  0.75733000  0.18893000  1.0
  O2-  O108  1  0.09798539  0.25856445  0.68755325  1.0
  O2-  O109  1  0.43586237  0.26080552  0.68770118  1.0
  O2-  O110  1  0.76745667  0.25733000  0.68893000  1.0
  O2-  O111  1  0.10079000  0.93893000  0.85611000  1.0
  O2-  O112  1  0.43412333  0.93893000  0.85611000  1.0
  O2-  O113  1  0.76986909  0.93966008  0.85467326  1.0
  O2-  O114  1  0.10079000  0.10611000  0.00733000  1.0
  O2-  O115  1  0.43412333  0.10611000  0.00733000  1.0
  O2-  O116  1  0.76745667  0.10611000  0.00733000  1.0
  O2-  O117  1  0.24755667  0.69763000  0.85611000  1.0
  O2-  O118  1  0.58089000  0.69763000  0.85611000  1.0
  O2-  O119  1  0.91642695  0.69787064  0.85599935  1.0
  O2-  O120  1  0.02155153  0.69645237  0.00420309  1.0
  O2-  O121  1  0.35454176  0.69165117  0.00446451  1.0
  O2-  O122  1  0.68702333  0.69763000  0.00733000  1.0
  O2-  O123  1  0.29796333  0.69763000  0.68893000  1.0
  O2-  O124  1  0.63483401  0.70010000  0.68977299  1.0
  O2-  O125  1  0.96463000  0.69763000  0.68893000  1.0
  O2-  O126  1  0.02035667  0.10611000  0.44763000  1.0
  O2-  O127  1  0.35369000  0.10611000  0.44763000  1.0
  O2-  O128  1  0.68702333  0.10611000  0.44763000  1.0
  O2-  O129  1  0.29796333  0.25733000  0.44763000  1.0
  O2-  O130  1  0.63129667  0.25733000  0.44763000  1.0
  O2-  O131  1  0.96463000  0.25733000  0.44763000  1.0
  O2-  O132  1  0.24700708  0.93467287  0.44574830  1.0
  O2-  O133  1  0.58089000  0.93893000  0.44763000  1.0
  O2-  O134  1  0.91422333  0.93893000  0.44763000  1.0
  O2-  O135  1  0.29796333  0.93893000  0.00733000  1.0
  O2-  O136  1  0.63129667  0.93893000  0.00733000  1.0
  O2-  O137  1  0.96703032  0.94032158  0.00953291  1.0
  O2-  O138  1  0.24644393  0.10438032  0.68950867  1.0
  O2-  O139  1  0.58089000  0.10611000  0.68893000  1.0
  O2-  O140  1  0.91422333  0.10611000  0.68893000  1.0
  O2-  O141  1  0.02035667  0.25733000  0.85611000  1.0
  O2-  O142  1  0.35369000  0.25733000  0.85611000  1.0
  O2-  O143  1  0.68702333  0.25733000  0.85611000  1.0
