# generated using pymatgen
data_Li4B7ClO12
_symmetry_space_group_name_H-M   'P 1'
_cell_length_a   8.59879525
_cell_length_b   25.79638574
_cell_length_c   8.59879525
_cell_angle_alpha   120.00000000
_cell_angle_beta   120.00000000
_cell_angle_gamma   60.00000000
_symmetry_Int_Tables_number   1
_chemical_formula_structural   Li4B7ClO12
_chemical_formula_sum   'Li24 B42 Cl6 O72'
_cell_volume   1348.71156136
_cell_formula_units_Z   6
loop_
 _symmetry_equiv_pos_site_id
 _symmetry_equiv_pos_as_xyz
  1  'x, y, z'
loop_
 _atom_type_symbol
 _atom_type_oxidation_number
  Li+  1.0
  B3+  3.0
  Cl-  -1.0
  O2-  -2.0
loop_
 _atom_site_type_symbol
 _atom_site_label
 _atom_site_symmetry_multiplicity
 _atom_site_fract_x
 _atom_site_fract_y
 _atom_site_fract_z
 _atom_site_occupancy
  Li+  Li0  1  0.00000000  0.50000000  0.00000000  1.0
  Li+  Li1  1  0.00000000  0.16666667  0.00000000  1.0
  Li+  Li2  1  0.00000000  0.83333333  0.00000000  1.0
  Li+  Li3  1  0.00000000  0.50000000  0.50000000  1.0
  Li+  Li4  1  0.00000000  0.16666667  0.50000000  1.0
  Li+  Li5  1  0.00000000  0.83333333  0.50000000  1.0
  Li+  Li6  1  0.00000000  0.66666667  0.50000000  1.0
  Li+  Li7  1  0.00000000  0.33333333  0.50000000  1.0
  Li+  Li8  1  0.00000000  0.00000000  0.50000000  1.0
  Li+  Li9  1  0.50000000  0.66666667  0.00000000  1.0
  Li+  Li10  1  0.50000000  0.33333333  0.00000000  1.0
  Li+  Li11  1  0.50000000  0.00000000  0.00000000  1.0
  Li+  Li12  1  0.50000000  0.50000000  0.00000000  1.0
  Li+  Li13  1  0.50000000  0.16666667  0.00000000  1.0
  Li+  Li14  1  0.50000000  0.83333333  0.00000000  1.0
  Li+  Li15  1  0.50000000  0.66666667  0.50000000  1.0
  Li+  Li16  1  0.50000000  0.33333333  0.50000000  1.0
  Li+  Li17  1  0.50000000  0.00000000  0.50000000  1.0
  Li+  Li18  1  0.88760000  0.45693333  0.62920000  1.0
  Li+  Li19  1  0.88760000  0.12360000  0.62920000  1.0
  Li+  Li20  1  0.88760000  0.79026667  0.62920000  1.0
  Li+  Li21  1  0.38760000  0.62360000  0.12920000  1.0
  Li+  Li22  1  0.38760000  0.29026667  0.12920000  1.0
  Li+  Li23  1  0.38760000  0.95693333  0.12920000  1.0
  B3+  B24  1  0.25000000  0.58333333  0.75000000  1.0
  B3+  B25  1  0.25000000  0.25000000  0.75000000  1.0
  B3+  B26  1  0.25000000  0.91666667  0.75000000  1.0
  B3+  B27  1  0.25000000  0.58333333  0.25000000  1.0
  B3+  B28  1  0.25000000  0.25000000  0.25000000  1.0
  B3+  B29  1  0.25000000  0.91666667  0.25000000  1.0
  B3+  B30  1  0.25000000  0.41666667  0.25000000  1.0
  B3+  B31  1  0.25000000  0.08333333  0.25000000  1.0
  B3+  B32  1  0.25000000  0.75000000  0.25000000  1.0
  B3+  B33  1  0.75000000  0.41666667  0.75000000  1.0
  B3+  B34  1  0.75000000  0.08333333  0.75000000  1.0
  B3+  B35  1  0.75000000  0.75000000  0.75000000  1.0
  B3+  B36  1  0.75000000  0.58333333  0.75000000  1.0
  B3+  B37  1  0.75000000  0.25000000  0.75000000  1.0
  B3+  B38  1  0.75000000  0.91666667  0.75000000  1.0
  B3+  B39  1  0.75000000  0.41666667  0.25000000  1.0
  B3+  B40  1  0.75000000  0.08333333  0.25000000  1.0
  B3+  B41  1  0.75000000  0.75000000  0.25000000  1.0
  B3+  B42  1  0.19892000  0.53345333  0.39964000  1.0
  B3+  B43  1  0.19892000  0.20012000  0.39964000  1.0
  B3+  B44  1  0.19892000  0.86678667  0.39964000  1.0
  B3+  B45  1  0.60036000  0.53345333  0.80108000  1.0
  B3+  B46  1  0.60036000  0.20012000  0.80108000  1.0
  B3+  B47  1  0.60036000  0.86678667  0.80108000  1.0
  B3+  B48  1  0.60036000  0.39964000  0.39964000  1.0
  B3+  B49  1  0.60036000  0.06630667  0.39964000  1.0
  B3+  B50  1  0.60036000  0.73297333  0.39964000  1.0
  B3+  B51  1  0.60036000  0.53345333  0.39964000  1.0
  B3+  B52  1  0.60036000  0.20012000  0.39964000  1.0
  B3+  B53  1  0.60036000  0.86678667  0.39964000  1.0
  B3+  B54  1  0.10036000  0.56630667  0.89964000  1.0
  B3+  B55  1  0.10036000  0.23297333  0.89964000  1.0
  B3+  B56  1  0.10036000  0.89964000  0.89964000  1.0
  B3+  B57  1  0.10036000  0.36678667  0.30108000  1.0
  B3+  B58  1  0.10036000  0.03345333  0.30108000  1.0
  B3+  B59  1  0.10036000  0.70012000  0.30108000  1.0
  B3+  B60  1  0.69892000  0.36678667  0.89964000  1.0
  B3+  B61  1  0.69892000  0.03345333  0.89964000  1.0
  B3+  B62  1  0.69892000  0.70012000  0.89964000  1.0
  B3+  B63  1  0.10036000  0.36678667  0.89964000  1.0
  B3+  B64  1  0.10036000  0.03345333  0.89964000  1.0
  B3+  B65  1  0.10036000  0.70012000  0.89964000  1.0
  Cl-  Cl66  1  0.75000000  0.58333333  0.25000000  1.0
  Cl-  Cl67  1  0.75000000  0.25000000  0.25000000  1.0
  Cl-  Cl68  1  0.75000000  0.91666667  0.25000000  1.0
  Cl-  Cl69  1  0.25000000  0.41666667  0.75000000  1.0
  Cl-  Cl70  1  0.25000000  0.08333333  0.75000000  1.0
  Cl-  Cl71  1  0.25000000  0.75000000  0.75000000  1.0
  O2-  O72  1  0.19763000  0.47964333  0.24267000  1.0
  O2-  O73  1  0.19763000  0.14631000  0.24267000  1.0
  O2-  O74  1  0.19763000  0.81297667  0.24267000  1.0
  O2-  O75  1  0.19763000  0.53537000  0.56107000  1.0
  O2-  O76  1  0.19763000  0.20203667  0.56107000  1.0
  O2-  O77  1  0.19763000  0.86870333  0.56107000  1.0
  O2-  O78  1  0.19763000  0.58577667  0.39389000  1.0
  O2-  O79  1  0.19763000  0.25244333  0.39389000  1.0
  O2-  O80  1  0.19763000  0.91911000  0.39389000  1.0
  O2-  O81  1  0.75733000  0.53537000  0.80237000  1.0
  O2-  O82  1  0.75733000  0.20203667  0.80237000  1.0
  O2-  O83  1  0.75733000  0.86870333  0.80237000  1.0
  O2-  O84  1  0.43893000  0.58577667  0.80237000  1.0
  O2-  O85  1  0.43893000  0.25244333  0.80237000  1.0
  O2-  O86  1  0.43893000  0.91911000  0.80237000  1.0
  O2-  O87  1  0.60611000  0.47964333  0.80237000  1.0
  O2-  O88  1  0.60611000  0.14631000  0.80237000  1.0
  O2-  O89  1  0.60611000  0.81297667  0.80237000  1.0
  O2-  O90  1  0.43893000  0.39921000  0.39389000  1.0
  O2-  O91  1  0.43893000  0.06587667  0.39389000  1.0
  O2-  O92  1  0.43893000  0.73254333  0.39389000  1.0
  O2-  O93  1  0.60611000  0.39921000  0.24267000  1.0
  O2-  O94  1  0.60611000  0.06587667  0.24267000  1.0
  O2-  O95  1  0.60611000  0.73254333  0.24267000  1.0
  O2-  O96  1  0.75733000  0.39921000  0.56107000  1.0
  O2-  O97  1  0.75733000  0.06587667  0.56107000  1.0
  O2-  O98  1  0.75733000  0.73254333  0.56107000  1.0
  O2-  O99  1  0.60611000  0.58577667  0.56107000  1.0
  O2-  O100  1  0.60611000  0.25244333  0.56107000  1.0
  O2-  O101  1  0.60611000  0.91911000  0.56107000  1.0
  O2-  O102  1  0.75733000  0.47964333  0.39389000  1.0
  O2-  O103  1  0.75733000  0.14631000  0.39389000  1.0
  O2-  O104  1  0.75733000  0.81297667  0.39389000  1.0
  O2-  O105  1  0.43893000  0.53537000  0.24267000  1.0
  O2-  O106  1  0.43893000  0.20203667  0.24267000  1.0
  O2-  O107  1  0.43893000  0.86870333  0.24267000  1.0
  O2-  O108  1  0.93893000  0.56587667  0.74267000  1.0
  O2-  O109  1  0.93893000  0.23254333  0.74267000  1.0
  O2-  O110  1  0.93893000  0.89921000  0.74267000  1.0
  O2-  O111  1  0.10611000  0.56587667  0.06107000  1.0
  O2-  O112  1  0.10611000  0.23254333  0.06107000  1.0
  O2-  O113  1  0.10611000  0.89921000  0.06107000  1.0
  O2-  O114  1  0.25733000  0.56587667  0.89389000  1.0
  O2-  O115  1  0.25733000  0.23254333  0.89389000  1.0
  O2-  O116  1  0.25733000  0.89921000  0.89389000  1.0
  O2-  O117  1  0.10611000  0.41911000  0.30237000  1.0
  O2-  O118  1  0.10611000  0.08577667  0.30237000  1.0
  O2-  O119  1  0.10611000  0.75244333  0.30237000  1.0
  O2-  O120  1  0.25733000  0.64631000  0.30237000  1.0
  O2-  O121  1  0.25733000  0.31297667  0.30237000  1.0
  O2-  O122  1  0.25733000  0.97964333  0.30237000  1.0
  O2-  O123  1  0.93893000  0.36870333  0.30237000  1.0
  O2-  O124  1  0.93893000  0.03537000  0.30237000  1.0
  O2-  O125  1  0.93893000  0.70203667  0.30237000  1.0
  O2-  O126  1  0.69763000  0.64631000  0.89389000  1.0
  O2-  O127  1  0.69763000  0.31297667  0.89389000  1.0
  O2-  O128  1  0.69763000  0.97964333  0.89389000  1.0
  O2-  O129  1  0.69763000  0.36870333  0.74267000  1.0
  O2-  O130  1  0.69763000  0.03537000  0.74267000  1.0
  O2-  O131  1  0.69763000  0.70203667  0.74267000  1.0
  O2-  O132  1  0.69763000  0.41911000  0.06107000  1.0
  O2-  O133  1  0.69763000  0.08577667  0.06107000  1.0
  O2-  O134  1  0.69763000  0.75244333  0.06107000  1.0
  O2-  O135  1  0.25733000  0.36870333  0.06107000  1.0
  O2-  O136  1  0.25733000  0.03537000  0.06107000  1.0
  O2-  O137  1  0.25733000  0.70203667  0.06107000  1.0
  O2-  O138  1  0.93893000  0.41911000  0.89389000  1.0
  O2-  O139  1  0.93893000  0.08577667  0.89389000  1.0
  O2-  O140  1  0.93893000  0.75244333  0.89389000  1.0
  O2-  O141  1  0.10611000  0.64631000  0.74267000  1.0
  O2-  O142  1  0.10611000  0.31297667  0.74267000  1.0
  O2-  O143  1  0.10611000  0.97964333  0.74267000  1.0
