# generated using pymatgen
data_Li4B7ClO12
_symmetry_space_group_name_H-M   'P 1'
_cell_length_a   25.75495029
_cell_length_b   8.58498343
_cell_length_c   8.58498343
_cell_angle_alpha   60.00000000
_cell_angle_beta   60.00000000
_cell_angle_gamma   60.00000000
_symmetry_Int_Tables_number   1
_chemical_formula_structural   Li4B7ClO12
_chemical_formula_sum   'Li24 B42 Cl6 O72'
_cell_volume   1342.22288923
_cell_formula_units_Z   6
loop_
 _symmetry_equiv_pos_site_id
 _symmetry_equiv_pos_as_xyz
  1  'x, y, z'
loop_
 _atom_type_symbol
 _atom_type_oxidation_number
  Li+  1.0
  B3+  3.0
  Cl-  -1.0
  O2-  -2.0
loop_
 _atom_site_type_symbol
 _atom_site_label
 _atom_site_symmetry_multiplicity
 _atom_site_fract_x
 _atom_site_fract_y
 _atom_site_fract_z
 _atom_site_occupancy
  Li+  Li2  1  0.16666667  0.00000000  0.00000000  1.0
  Li+  Li2  1  0.50000000  0.00000000  0.00000000  1.0
  Li+  Li2  1  0.83333333  0.00000000  0.00000000  1.0
  Li+  Li2  1  0.16666667  0.00000000  0.50000000  1.0
  Li+  Li2  1  0.50000000  0.00000000  0.50000000  1.0
  Li+  Li2  1  0.83333333  0.00000000  0.50000000  1.0
  Li+  Li2  1  0.00000000  0.00000000  0.50000000  1.0
  Li+  Li2  1  0.33333333  0.00000000  0.50000000  1.0
  Li+  Li2  1  0.66666667  0.00000000  0.50000000  1.0
  Li+  Li2  1  0.00000000  0.50000000  0.00000000  1.0
  Li+  Li2  1  0.33333333  0.50000000  0.00000000  1.0
  Li+  Li2  1  0.66666667  0.50000000  0.00000000  1.0
  Li+  Li2  1  0.16666667  0.50000000  0.00000000  1.0
  Li+  Li2  1  0.50000000  0.50000000  0.00000000  1.0
  Li+  Li2  1  0.83333333  0.50000000  0.00000000  1.0
  Li+  Li2  1  0.00000000  0.50000000  0.50000000  1.0
  Li+  Li2  1  0.33333333  0.50000000  0.50000000  1.0
  Li+  Li2  1  0.66666667  0.50000000  0.50000000  1.0
  Li+  Li6  1  0.20973333  0.11240000  0.62920000  1.0
  Li+  Li6  1  0.54306667  0.11240000  0.62920000  1.0
  Li+  Li6  1  0.87640000  0.11240000  0.62920000  1.0
  Li+  Li7  1  0.04306667  0.61240000  0.12920000  1.0
  Li+  Li7  1  0.37640000  0.61240000  0.12920000  1.0
  Li+  Li7  1  0.70973333  0.61240000  0.12920000  1.0
  B3+  B1  1  0.08333333  0.75000000  0.75000000  1.0
  B3+  B1  1  0.41666667  0.75000000  0.75000000  1.0
  B3+  B1  1  0.75000000  0.75000000  0.75000000  1.0
  B3+  B1  1  0.08333333  0.75000000  0.25000000  1.0
  B3+  B1  1  0.41666667  0.75000000  0.25000000  1.0
  B3+  B1  1  0.75000000  0.75000000  0.25000000  1.0
  B3+  B1  1  0.25000000  0.75000000  0.25000000  1.0
  B3+  B1  1  0.58333333  0.75000000  0.25000000  1.0
  B3+  B1  1  0.91666667  0.75000000  0.25000000  1.0
  B3+  B1  1  0.25000000  0.25000000  0.75000000  1.0
  B3+  B1  1  0.58333333  0.25000000  0.75000000  1.0
  B3+  B1  1  0.91666667  0.25000000  0.75000000  1.0
  B3+  B1  1  0.08333333  0.25000000  0.75000000  1.0
  B3+  B1  1  0.41666667  0.25000000  0.75000000  1.0
  B3+  B1  1  0.75000000  0.25000000  0.75000000  1.0
  B3+  B1  1  0.25000000  0.25000000  0.25000000  1.0
  B3+  B1  1  0.58333333  0.25000000  0.25000000  1.0
  B3+  B1  1  0.91666667  0.25000000  0.25000000  1.0
  B3+  B2  1  0.13321333  0.80108000  0.39964000  1.0
  B3+  B2  1  0.46654667  0.80108000  0.39964000  1.0
  B3+  B2  1  0.79988000  0.80108000  0.39964000  1.0
  B3+  B2  1  0.13321333  0.39964000  0.80108000  1.0
  B3+  B2  1  0.46654667  0.39964000  0.80108000  1.0
  B3+  B2  1  0.79988000  0.39964000  0.80108000  1.0
  B3+  B2  1  0.26702667  0.39964000  0.39964000  1.0
  B3+  B2  1  0.60036000  0.39964000  0.39964000  1.0
  B3+  B2  1  0.93369333  0.39964000  0.39964000  1.0
  B3+  B2  1  0.13321333  0.39964000  0.39964000  1.0
  B3+  B2  1  0.46654667  0.39964000  0.39964000  1.0
  B3+  B2  1  0.79988000  0.39964000  0.39964000  1.0
  B3+  B2  1  0.10036000  0.89964000  0.89964000  1.0
  B3+  B2  1  0.43369333  0.89964000  0.89964000  1.0
  B3+  B2  1  0.76702667  0.89964000  0.89964000  1.0
  B3+  B2  1  0.29988000  0.89964000  0.30108000  1.0
  B3+  B2  1  0.63321333  0.89964000  0.30108000  1.0
  B3+  B2  1  0.96654667  0.89964000  0.30108000  1.0
  B3+  B2  1  0.29988000  0.30108000  0.89964000  1.0
  B3+  B2  1  0.63321333  0.30108000  0.89964000  1.0
  B3+  B2  1  0.96654667  0.30108000  0.89964000  1.0
  B3+  B2  1  0.29988000  0.89964000  0.89964000  1.0
  B3+  B2  1  0.63321333  0.89964000  0.89964000  1.0
  B3+  B2  1  0.96654667  0.89964000  0.89964000  1.0
  Cl-  Cl1  1  0.08333333  0.25000000  0.25000000  1.0
  Cl-  Cl1  1  0.41666667  0.25000000  0.25000000  1.0
  Cl-  Cl1  1  0.75000000  0.25000000  0.25000000  1.0
  Cl-  Cl1  1  0.25000000  0.75000000  0.75000000  1.0
  Cl-  Cl1  1  0.58333333  0.75000000  0.75000000  1.0
  Cl-  Cl1  1  0.91666667  0.75000000  0.75000000  1.0
  O2-  O1  1  0.18702333  0.80237000  0.24267000  1.0
  O2-  O1  1  0.52035667  0.80237000  0.24267000  1.0
  O2-  O1  1  0.85369000  0.80237000  0.24267000  1.0
  O2-  O1  1  0.13129667  0.80237000  0.56107000  1.0
  O2-  O1  1  0.46463000  0.80237000  0.56107000  1.0
  O2-  O1  1  0.79796333  0.80237000  0.56107000  1.0
  O2-  O1  1  0.08089000  0.80237000  0.39389000  1.0
  O2-  O1  1  0.41422333  0.80237000  0.39389000  1.0
  O2-  O1  1  0.74755667  0.80237000  0.39389000  1.0
  O2-  O1  1  0.13129667  0.24267000  0.80237000  1.0
  O2-  O1  1  0.46463000  0.24267000  0.80237000  1.0
  O2-  O1  1  0.79796333  0.24267000  0.80237000  1.0
  O2-  O1  1  0.08089000  0.56107000  0.80237000  1.0
  O2-  O1  1  0.41422333  0.56107000  0.80237000  1.0
  O2-  O1  1  0.74755667  0.56107000  0.80237000  1.0
  O2-  O1  1  0.18702333  0.39389000  0.80237000  1.0
  O2-  O1  1  0.52035667  0.39389000  0.80237000  1.0
  O2-  O1  1  0.85369000  0.39389000  0.80237000  1.0
  O2-  O1  1  0.26745667  0.56107000  0.39389000  1.0
  O2-  O1  1  0.60079000  0.56107000  0.39389000  1.0
  O2-  O1  1  0.93412333  0.56107000  0.39389000  1.0
  O2-  O1  1  0.26745667  0.39389000  0.24267000  1.0
  O2-  O1  1  0.60079000  0.39389000  0.24267000  1.0
  O2-  O1  1  0.93412333  0.39389000  0.24267000  1.0
  O2-  O1  1  0.26745667  0.24267000  0.56107000  1.0
  O2-  O1  1  0.60079000  0.24267000  0.56107000  1.0
  O2-  O1  1  0.93412333  0.24267000  0.56107000  1.0
  O2-  O1  1  0.08089000  0.39389000  0.56107000  1.0
  O2-  O1  1  0.41422333  0.39389000  0.56107000  1.0
  O2-  O1  1  0.74755667  0.39389000  0.56107000  1.0
  O2-  O1  1  0.18702333  0.24267000  0.39389000  1.0
  O2-  O1  1  0.52035667  0.24267000  0.39389000  1.0
  O2-  O1  1  0.85369000  0.24267000  0.39389000  1.0
  O2-  O1  1  0.13129667  0.56107000  0.24267000  1.0
  O2-  O1  1  0.46463000  0.56107000  0.24267000  1.0
  O2-  O1  1  0.79796333  0.56107000  0.24267000  1.0
  O2-  O1  1  0.10079000  0.06107000  0.74267000  1.0
  O2-  O1  1  0.43412333  0.06107000  0.74267000  1.0
  O2-  O1  1  0.76745667  0.06107000  0.74267000  1.0
  O2-  O1  1  0.10079000  0.89389000  0.06107000  1.0
  O2-  O1  1  0.43412333  0.89389000  0.06107000  1.0
  O2-  O1  1  0.76745667  0.89389000  0.06107000  1.0
  O2-  O1  1  0.10079000  0.74267000  0.89389000  1.0
  O2-  O1  1  0.43412333  0.74267000  0.89389000  1.0
  O2-  O1  1  0.76745667  0.74267000  0.89389000  1.0
  O2-  O1  1  0.24755667  0.89389000  0.30237000  1.0
  O2-  O1  1  0.58089000  0.89389000  0.30237000  1.0
  O2-  O1  1  0.91422333  0.89389000  0.30237000  1.0
  O2-  O1  1  0.02035667  0.74267000  0.30237000  1.0
  O2-  O1  1  0.35369000  0.74267000  0.30237000  1.0
  O2-  O1  1  0.68702333  0.74267000  0.30237000  1.0
  O2-  O1  1  0.29796333  0.06107000  0.30237000  1.0
  O2-  O1  1  0.63129667  0.06107000  0.30237000  1.0
  O2-  O1  1  0.96463000  0.06107000  0.30237000  1.0
  O2-  O1  1  0.02035667  0.30237000  0.89389000  1.0
  O2-  O1  1  0.35369000  0.30237000  0.89389000  1.0
  O2-  O1  1  0.68702333  0.30237000  0.89389000  1.0
  O2-  O1  1  0.29796333  0.30237000  0.74267000  1.0
  O2-  O1  1  0.63129667  0.30237000  0.74267000  1.0
  O2-  O1  1  0.96463000  0.30237000  0.74267000  1.0
  O2-  O1  1  0.24755667  0.30237000  0.06107000  1.0
  O2-  O1  1  0.58089000  0.30237000  0.06107000  1.0
  O2-  O1  1  0.91422333  0.30237000  0.06107000  1.0
  O2-  O1  1  0.29796333  0.74267000  0.06107000  1.0
  O2-  O1  1  0.63129667  0.74267000  0.06107000  1.0
  O2-  O1  1  0.96463000  0.74267000  0.06107000  1.0
  O2-  O1  1  0.24755667  0.06107000  0.89389000  1.0
  O2-  O1  1  0.58089000  0.06107000  0.89389000  1.0
  O2-  O1  1  0.91422333  0.06107000  0.89389000  1.0
  O2-  O1  1  0.02035667  0.89389000  0.74267000  1.0
  O2-  O1  1  0.35369000  0.89389000  0.74267000  1.0
  O2-  O1  1  0.68702333  0.89389000  0.74267000  1.0
