# generated using pymatgen
data_Li6PSeS4Br
_symmetry_space_group_name_H-M   'P 1'
_cell_length_a   14.21594343
_cell_length_b   14.21594343
_cell_length_c   14.21594343
_cell_angle_alpha   60.00000000
_cell_angle_beta   60.00000000
_cell_angle_gamma   60.00000000
_symmetry_Int_Tables_number   1
_chemical_formula_structural   Li6PSeS4Br
_chemical_formula_sum   'Li48 P8 Se8 S32 Br8'
_cell_volume   2031.47771227
_cell_formula_units_Z   8
loop_
 _symmetry_equiv_pos_site_id
 _symmetry_equiv_pos_as_xyz
  1  'x, y, z'
loop_
 _atom_type_symbol
 _atom_type_oxidation_number
  Li+  1.0
  P5+  5.0
  Se2-  -2.0
  S2-  -2.0
  Br-  -1.0
loop_
 _atom_site_type_symbol
 _atom_site_label
 _atom_site_symmetry_multiplicity
 _atom_site_fract_x
 _atom_site_fract_y
 _atom_site_fract_z
 _atom_site_occupancy
  Li+  Li0  1  0.74150000  0.50850000  0.74150000  1.0
  Li+  Li1  1  0.00850000  0.24150000  0.24150000  1.0
  Li+  Li2  1  0.00850000  0.00850000  0.24150000  1.0
  Li+  Li3  1  0.00850000  0.24150000  0.50850000  1.0
  Li+  Li4  1  0.50850000  0.74150000  0.50850000  1.0
  Li+  Li5  1  0.24150000  0.24150000  0.00850000  1.0
  Li+  Li6  1  0.18035000  0.01255000  0.29455000  1.0
  Li+  Li7  1  0.18035000  0.51255000  0.79455000  1.0
  Li+  Li8  1  0.68035000  0.01255000  0.79455000  1.0
  Li+  Li9  1  0.01255000  0.29455000  0.68035000  1.0
  Li+  Li10  1  0.01255000  0.79455000  0.18035000  1.0
  Li+  Li11  1  0.01255000  0.79455000  0.68035000  1.0
  Li+  Li12  1  0.51255000  0.29455000  0.18035000  1.0
  Li+  Li13  1  0.51255000  0.29455000  0.68035000  1.0
  Li+  Li14  1  0.29455000  0.01255000  0.51255000  1.0
  Li+  Li15  1  0.29455000  0.51255000  0.01255000  1.0
  Li+  Li16  1  0.29455000  0.51255000  0.51255000  1.0
  Li+  Li17  1  0.79455000  0.01255000  0.01255000  1.0
  Li+  Li18  1  0.29455000  0.01255000  0.18035000  1.0
  Li+  Li19  1  0.79455000  0.01255000  0.18035000  1.0
  Li+  Li20  1  0.01255000  0.01255000  0.29455000  1.0
  Li+  Li21  1  0.01255000  0.01255000  0.79455000  1.0
  Li+  Li22  1  0.51255000  0.01255000  0.29455000  1.0
  Li+  Li23  1  0.01255000  0.51255000  0.68035000  1.0
  Li+  Li24  1  0.51255000  0.01255000  0.68035000  1.0
  Li+  Li25  1  0.51255000  0.51255000  0.18035000  1.0
  Li+  Li26  1  0.51255000  0.51255000  0.68035000  1.0
  Li+  Li27  1  0.01255000  0.18035000  0.79455000  1.0
  Li+  Li28  1  0.01255000  0.68035000  0.79455000  1.0
  Li+  Li29  1  0.51255000  0.68035000  0.29455000  1.0
  Li+  Li30  1  0.51255000  0.68035000  0.79455000  1.0
  Li+  Li31  1  0.51255000  0.18035000  0.51255000  1.0
  Li+  Li32  1  0.51255000  0.68035000  0.01255000  1.0
  Li+  Li33  1  0.18035000  0.01255000  0.01255000  1.0
  Li+  Li34  1  0.18035000  0.01255000  0.51255000  1.0
  Li+  Li35  1  0.18035000  0.51255000  0.51255000  1.0
  Li+  Li36  1  0.68035000  0.01255000  0.51255000  1.0
  Li+  Li37  1  0.68035000  0.51255000  0.51255000  1.0
  Li+  Li38  1  0.01255000  0.29455000  0.01255000  1.0
  Li+  Li39  1  0.01255000  0.79455000  0.01255000  1.0
  Li+  Li40  1  0.51255000  0.29455000  0.51255000  1.0
  Li+  Li41  1  0.51255000  0.79455000  0.51255000  1.0
  Li+  Li42  1  0.29455000  0.18035000  0.01255000  1.0
  Li+  Li43  1  0.79455000  0.18035000  0.51255000  1.0
  Li+  Li44  1  0.18035000  0.79455000  0.01255000  1.0
  Li+  Li45  1  0.68035000  0.29455000  0.01255000  1.0
  Li+  Li46  1  0.68035000  0.79455000  0.01255000  1.0
  Li+  Li47  1  0.68035000  0.79455000  0.51255000  1.0
  P5+  P1  1  0.25000000  0.25000000  0.25000000  1.0
  P5+  P1  1  0.25000000  0.25000000  0.75000000  1.0
  P5+  P1  1  0.25000000  0.75000000  0.25000000  1.0
  P5+  P1  1  0.25000000  0.75000000  0.75000000  1.0
  P5+  P1  1  0.75000000  0.25000000  0.25000000  1.0
  P5+  P1  1  0.75000000  0.25000000  0.75000000  1.0
  P5+  P1  1  0.75000000  0.75000000  0.25000000  1.0
  P5+  P1  1  0.75000000  0.75000000  0.75000000  1.0
  Se2-  Se56  1  0.12500000  0.12500000  0.12500000  1.0
  Se2-  Se57  1  0.12500000  0.12500000  0.62500000  1.0
  Se2-  Se58  1  0.12500000  0.62500000  0.12500000  1.0
  Se2-  Se59  1  0.12500000  0.62500000  0.62500000  1.0
  Se2-  Se60  1  0.62500000  0.12500000  0.12500000  1.0
  Se2-  Se61  1  0.62500000  0.12500000  0.62500000  1.0
  Se2-  Se62  1  0.62500000  0.62500000  0.12500000  1.0
  Se2-  Se63  1  0.62500000  0.62500000  0.62500000  1.0
  S2-  S64  1  0.31179000  0.06463000  0.31179000  1.0
  S2-  S65  1  0.31179000  0.06463000  0.81179000  1.0
  S2-  S66  1  0.31179000  0.56463000  0.31179000  1.0
  S2-  S67  1  0.31179000  0.56463000  0.81179000  1.0
  S2-  S68  1  0.81179000  0.06463000  0.31179000  1.0
  S2-  S69  1  0.81179000  0.06463000  0.81179000  1.0
  S2-  S70  1  0.81179000  0.56463000  0.31179000  1.0
  S2-  S71  1  0.81179000  0.56463000  0.81179000  1.0
  S2-  S72  1  0.31179000  0.31179000  0.31179000  1.0
  S2-  S73  1  0.31179000  0.31179000  0.81179000  1.0
  S2-  S74  1  0.31179000  0.81179000  0.31179000  1.0
  S2-  S75  1  0.31179000  0.81179000  0.81179000  1.0
  S2-  S76  1  0.81179000  0.31179000  0.31179000  1.0
  S2-  S77  1  0.81179000  0.31179000  0.81179000  1.0
  S2-  S78  1  0.81179000  0.81179000  0.31179000  1.0
  S2-  S79  1  0.81179000  0.81179000  0.81179000  1.0
  S2-  S80  1  0.31179000  0.31179000  0.06463000  1.0
  S2-  S81  1  0.31179000  0.31179000  0.56463000  1.0
  S2-  S82  1  0.31179000  0.81179000  0.06463000  1.0
  S2-  S83  1  0.31179000  0.81179000  0.56463000  1.0
  S2-  S84  1  0.81179000  0.31179000  0.06463000  1.0
  S2-  S85  1  0.81179000  0.31179000  0.56463000  1.0
  S2-  S86  1  0.81179000  0.81179000  0.06463000  1.0
  S2-  S87  1  0.81179000  0.81179000  0.56463000  1.0
  S2-  S88  1  0.06463000  0.31179000  0.31179000  1.0
  S2-  S89  1  0.06463000  0.31179000  0.81179000  1.0
  S2-  S90  1  0.06463000  0.81179000  0.31179000  1.0
  S2-  S91  1  0.06463000  0.81179000  0.81179000  1.0
  S2-  S92  1  0.56463000  0.31179000  0.31179000  1.0
  S2-  S93  1  0.56463000  0.31179000  0.81179000  1.0
  S2-  S94  1  0.56463000  0.81179000  0.31179000  1.0
  S2-  S95  1  0.56463000  0.81179000  0.81179000  1.0
  Br-  Br1  1  0.00000000  0.00000000  0.00000000  1.0
  Br-  Br1  1  0.00000000  0.00000000  0.50000000  1.0
  Br-  Br1  1  0.00000000  0.50000000  0.00000000  1.0
  Br-  Br1  1  0.00000000  0.50000000  0.50000000  1.0
  Br-  Br1  1  0.50000000  0.00000000  0.00000000  1.0
  Br-  Br1  1  0.50000000  0.00000000  0.50000000  1.0
  Br-  Br1  1  0.50000000  0.50000000  0.00000000  1.0
  Br-  Br1  1  0.50000000  0.50000000  0.50000000  1.0
