# generated using pymatgen
data_Li29Zr(In3Cl20)3
_symmetry_space_group_name_H-M   'P 1'
_cell_length_a   32.05250000
_cell_length_b   11.08830000
_cell_length_c   12.77820000
_cell_angle_alpha   90.00000000
_cell_angle_beta   109.84200000
_cell_angle_gamma   90.00000000
_symmetry_Int_Tables_number   1
_chemical_formula_structural   Li29Zr(In3Cl20)3
_chemical_formula_sum   'Li58 Zr2 In18 Cl120'
_cell_volume   4271.85401707
_cell_formula_units_Z   2
loop_
 _symmetry_equiv_pos_site_id
 _symmetry_equiv_pos_as_xyz
  1  'x, y, z'
loop_
 _atom_type_symbol
 _atom_type_oxidation_number
  Li+  1.0
  Zr4+  4.0
  In3+  3.0
  Cl-  -1.0
loop_
 _atom_site_type_symbol
 _atom_site_label
 _atom_site_symmetry_multiplicity
 _atom_site_fract_x
 _atom_site_fract_y
 _atom_site_fract_z
 _atom_site_occupancy
  Li+  Li0  1  0.90000000  0.00000000  0.25000000  1.0
  Li+  Li0  1  0.90000000  0.00000000  0.75000000  1.0
  Li+  Li1  1  0.40000000  0.50000000  0.25000000  1.0
  Li+  Li1  1  0.40000000  0.50000000  0.75000000  1.0
  Li+  Li2  1  0.80000000  0.50000000  0.25000000  1.0
  Li+  Li2  1  0.80000000  0.50000000  0.75000000  1.0
  Li+  Li3  1  0.00000000  0.14400000  0.25000000  1.0
  Li+  Li3  1  0.00000000  0.14400000  0.75000000  1.0
  Li+  Li4  1  0.20000000  0.14400000  0.25000000  1.0
  Li+  Li4  1  0.20000000  0.14400000  0.75000000  1.0
  Li+  Li5  1  0.60000000  0.14400000  0.25000000  1.0
  Li+  Li5  1  0.60000000  0.14400000  0.75000000  1.0
  Li+  Li6  1  0.00000000  0.85600000  0.25000000  1.0
  Li+  Li6  1  0.00000000  0.85600000  0.75000000  1.0
  Li+  Li7  1  0.40000000  0.85600000  0.25000000  1.0
  Li+  Li7  1  0.40000000  0.85600000  0.75000000  1.0
  Li+  Li8  1  0.60000000  0.85600000  0.25000000  1.0
  Li+  Li8  1  0.60000000  0.85600000  0.75000000  1.0
  Li+  Li9  1  0.80000000  0.85600000  0.25000000  1.0
  Li+  Li9  1  0.80000000  0.85600000  0.75000000  1.0
  Li+  Li10  1  0.10000000  0.64400000  0.25000000  1.0
  Li+  Li10  1  0.10000000  0.64400000  0.75000000  1.0
  Li+  Li11  1  0.30000000  0.64400000  0.25000000  1.0
  Li+  Li11  1  0.30000000  0.64400000  0.75000000  1.0
  Li+  Li12  1  0.50000000  0.64400000  0.25000000  1.0
  Li+  Li12  1  0.50000000  0.64400000  0.75000000  1.0
  Li+  Li13  1  0.70000000  0.64400000  0.25000000  1.0
  Li+  Li13  1  0.70000000  0.64400000  0.75000000  1.0
  Li+  Li14  1  0.10000000  0.35600000  0.25000000  1.0
  Li+  Li14  1  0.10000000  0.35600000  0.75000000  1.0
  Li+  Li15  1  0.30000000  0.35600000  0.25000000  1.0
  Li+  Li15  1  0.30000000  0.35600000  0.75000000  1.0
  Li+  Li16  1  0.00000000  0.29500000  0.00000000  1.0
  Li+  Li16  1  0.00000000  0.29500000  0.50000000  1.0
  Li+  Li17  1  0.20000000  0.29500000  0.00000000  1.0
  Li+  Li17  1  0.20000000  0.29500000  0.50000000  1.0
  Li+  Li18  1  0.40000000  0.29500000  0.00000000  1.0
  Li+  Li18  1  0.40000000  0.29500000  0.50000000  1.0
  Li+  Li19  1  0.60000000  0.29500000  0.00000000  1.0
  Li+  Li19  1  0.60000000  0.29500000  0.50000000  1.0
  Li+  Li20  1  0.80000000  0.29500000  0.00000000  1.0
  Li+  Li20  1  0.80000000  0.29500000  0.50000000  1.0
  Li+  Li21  1  0.20000000  0.70500000  0.00000000  1.0
  Li+  Li21  1  0.20000000  0.70500000  0.50000000  1.0
  Li+  Li22  1  0.60000000  0.70500000  0.00000000  1.0
  Li+  Li22  1  0.60000000  0.70500000  0.50000000  1.0
  Li+  Li23  1  0.80000000  0.70500000  0.00000000  1.0
  Li+  Li23  1  0.80000000  0.70500000  0.50000000  1.0
  Li+  Li24  1  0.30000000  0.79500000  0.00000000  1.0
  Li+  Li24  1  0.30000000  0.79500000  0.50000000  1.0
  Li+  Li25  1  0.70000000  0.79500000  0.00000000  1.0
  Li+  Li25  1  0.70000000  0.79500000  0.50000000  1.0
  Li+  Li26  1  0.50000000  0.20500000  0.00000000  1.0
  Li+  Li26  1  0.50000000  0.20500000  0.50000000  1.0
  Li+  Li27  1  0.70000000  0.20500000  0.00000000  1.0
  Li+  Li27  1  0.70000000  0.20500000  0.50000000  1.0
  Li+  Li28  1  0.90000000  0.20500000  0.00000000  1.0
  Li+  Li28  1  0.90000000  0.20500000  0.50000000  1.0
  Zr4+  Zr29  1  0.40000000  0.70500000  0.00000000  1.0
  Zr4+  Zr29  1  0.40000000  0.70500000  0.50000000  1.0
  In3+  In30  1  0.00000000  0.70500000  0.00000000  1.0
  In3+  In30  1  0.00000000  0.70500000  0.50000000  1.0
  In3+  In31  1  0.30000000  0.20500000  0.00000000  1.0
  In3+  In31  1  0.30000000  0.20500000  0.50000000  1.0
  In3+  In32  1  0.20000000  0.00000000  0.00000000  1.0
  In3+  In32  1  0.20000000  0.00000000  0.50000000  1.0
  In3+  In33  1  0.60000000  0.00000000  0.00000000  1.0
  In3+  In33  1  0.60000000  0.00000000  0.50000000  1.0
  In3+  In34  1  0.80000000  0.00000000  0.00000000  1.0
  In3+  In34  1  0.80000000  0.00000000  0.50000000  1.0
  In3+  In35  1  0.10000000  0.50000000  0.00000000  1.0
  In3+  In35  1  0.10000000  0.50000000  0.50000000  1.0
  In3+  In36  1  0.50000000  0.50000000  0.00000000  1.0
  In3+  In36  1  0.50000000  0.50000000  0.50000000  1.0
  In3+  In37  1  0.70000000  0.50000000  0.00000000  1.0
  In3+  In37  1  0.70000000  0.50000000  0.50000000  1.0
  In3+  In38  1  0.90000000  0.50000000  0.00000000  1.0
  In3+  In38  1  0.90000000  0.50000000  0.50000000  1.0
  Cl-  Cl1  1  0.04826000  0.00000000  0.37970000  1.0
  Cl-  Cl1  1  0.04826000  0.00000000  0.87970000  1.0
  Cl-  Cl1  1  0.24826000  0.00000000  0.37970000  1.0
  Cl-  Cl1  1  0.24826000  0.00000000  0.87970000  1.0
  Cl-  Cl1  1  0.44826000  0.00000000  0.37970000  1.0
  Cl-  Cl1  1  0.44826000  0.00000000  0.87970000  1.0
  Cl-  Cl1  1  0.64826000  0.00000000  0.37970000  1.0
  Cl-  Cl1  1  0.64826000  0.00000000  0.87970000  1.0
  Cl-  Cl1  1  0.84826000  0.00000000  0.37970000  1.0
  Cl-  Cl1  1  0.84826000  0.00000000  0.87970000  1.0
  Cl-  Cl1  1  0.15174000  0.00000000  0.12030000  1.0
  Cl-  Cl1  1  0.15174000  0.00000000  0.62030000  1.0
  Cl-  Cl1  1  0.35174000  0.00000000  0.12030000  1.0
  Cl-  Cl1  1  0.35174000  0.00000000  0.62030000  1.0
  Cl-  Cl1  1  0.55174000  0.00000000  0.12030000  1.0
  Cl-  Cl1  1  0.55174000  0.00000000  0.62030000  1.0
  Cl-  Cl1  1  0.75174000  0.00000000  0.12030000  1.0
  Cl-  Cl1  1  0.75174000  0.00000000  0.62030000  1.0
  Cl-  Cl1  1  0.95174000  0.00000000  0.12030000  1.0
  Cl-  Cl1  1  0.95174000  0.00000000  0.62030000  1.0
  Cl-  Cl1  1  0.14826000  0.50000000  0.37970000  1.0
  Cl-  Cl1  1  0.14826000  0.50000000  0.87970000  1.0
  Cl-  Cl1  1  0.34826000  0.50000000  0.37970000  1.0
  Cl-  Cl1  1  0.34826000  0.50000000  0.87970000  1.0
  Cl-  Cl1  1  0.54826000  0.50000000  0.37970000  1.0
  Cl-  Cl1  1  0.54826000  0.50000000  0.87970000  1.0
  Cl-  Cl1  1  0.74826000  0.50000000  0.37970000  1.0
  Cl-  Cl1  1  0.74826000  0.50000000  0.87970000  1.0
  Cl-  Cl1  1  0.94826000  0.50000000  0.37970000  1.0
  Cl-  Cl1  1  0.94826000  0.50000000  0.87970000  1.0
  Cl-  Cl1  1  0.05174000  0.50000000  0.12030000  1.0
  Cl-  Cl1  1  0.05174000  0.50000000  0.62030000  1.0
  Cl-  Cl1  1  0.25174000  0.50000000  0.12030000  1.0
  Cl-  Cl1  1  0.25174000  0.50000000  0.62030000  1.0
  Cl-  Cl1  1  0.45174000  0.50000000  0.12030000  1.0
  Cl-  Cl1  1  0.45174000  0.50000000  0.62030000  1.0
  Cl-  Cl1  1  0.65174000  0.50000000  0.12030000  1.0
  Cl-  Cl1  1  0.65174000  0.50000000  0.62030000  1.0
  Cl-  Cl1  1  0.85174000  0.50000000  0.12030000  1.0
  Cl-  Cl1  1  0.85174000  0.50000000  0.62030000  1.0
  Cl-  Cl2  1  0.04796000  0.16440000  0.11825000  1.0
  Cl-  Cl2  1  0.04796000  0.16440000  0.61825000  1.0
  Cl-  Cl2  1  0.24796000  0.16440000  0.11825000  1.0
  Cl-  Cl2  1  0.24796000  0.16440000  0.61825000  1.0
  Cl-  Cl2  1  0.44796000  0.16440000  0.11825000  1.0
  Cl-  Cl2  1  0.44796000  0.16440000  0.61825000  1.0
  Cl-  Cl2  1  0.64796000  0.16440000  0.11825000  1.0
  Cl-  Cl2  1  0.64796000  0.16440000  0.61825000  1.0
  Cl-  Cl2  1  0.84796000  0.16440000  0.11825000  1.0
  Cl-  Cl2  1  0.84796000  0.16440000  0.61825000  1.0
  Cl-  Cl2  1  0.15204000  0.83560000  0.38175000  1.0
  Cl-  Cl2  1  0.15204000  0.83560000  0.88175000  1.0
  Cl-  Cl2  1  0.35204000  0.83560000  0.38175000  1.0
  Cl-  Cl2  1  0.35204000  0.83560000  0.88175000  1.0
  Cl-  Cl2  1  0.55204000  0.83560000  0.38175000  1.0
  Cl-  Cl2  1  0.55204000  0.83560000  0.88175000  1.0
  Cl-  Cl2  1  0.75204000  0.83560000  0.38175000  1.0
  Cl-  Cl2  1  0.75204000  0.83560000  0.88175000  1.0
  Cl-  Cl2  1  0.95204000  0.83560000  0.38175000  1.0
  Cl-  Cl2  1  0.95204000  0.83560000  0.88175000  1.0
  Cl-  Cl2  1  0.15204000  0.16440000  0.38175000  1.0
  Cl-  Cl2  1  0.15204000  0.16440000  0.88175000  1.0
  Cl-  Cl2  1  0.35204000  0.16440000  0.38175000  1.0
  Cl-  Cl2  1  0.35204000  0.16440000  0.88175000  1.0
  Cl-  Cl2  1  0.55204000  0.16440000  0.38175000  1.0
  Cl-  Cl2  1  0.55204000  0.16440000  0.88175000  1.0
  Cl-  Cl2  1  0.75204000  0.16440000  0.38175000  1.0
  Cl-  Cl2  1  0.75204000  0.16440000  0.88175000  1.0
  Cl-  Cl2  1  0.95204000  0.16440000  0.38175000  1.0
  Cl-  Cl2  1  0.95204000  0.16440000  0.88175000  1.0
  Cl-  Cl2  1  0.04796000  0.83560000  0.11825000  1.0
  Cl-  Cl2  1  0.04796000  0.83560000  0.61825000  1.0
  Cl-  Cl2  1  0.24796000  0.83560000  0.11825000  1.0
  Cl-  Cl2  1  0.24796000  0.83560000  0.61825000  1.0
  Cl-  Cl2  1  0.44796000  0.83560000  0.11825000  1.0
  Cl-  Cl2  1  0.44796000  0.83560000  0.61825000  1.0
  Cl-  Cl2  1  0.64796000  0.83560000  0.11825000  1.0
  Cl-  Cl2  1  0.64796000  0.83560000  0.61825000  1.0
  Cl-  Cl2  1  0.84796000  0.83560000  0.11825000  1.0
  Cl-  Cl2  1  0.84796000  0.83560000  0.61825000  1.0
  Cl-  Cl2  1  0.14796000  0.66440000  0.11825000  1.0
  Cl-  Cl2  1  0.14796000  0.66440000  0.61825000  1.0
  Cl-  Cl2  1  0.34796000  0.66440000  0.11825000  1.0
  Cl-  Cl2  1  0.34796000  0.66440000  0.61825000  1.0
  Cl-  Cl2  1  0.54796000  0.66440000  0.11825000  1.0
  Cl-  Cl2  1  0.54796000  0.66440000  0.61825000  1.0
  Cl-  Cl2  1  0.74796000  0.66440000  0.11825000  1.0
  Cl-  Cl2  1  0.74796000  0.66440000  0.61825000  1.0
  Cl-  Cl2  1  0.94796000  0.66440000  0.11825000  1.0
  Cl-  Cl2  1  0.94796000  0.66440000  0.61825000  1.0
  Cl-  Cl2  1  0.05204000  0.33560000  0.38175000  1.0
  Cl-  Cl2  1  0.05204000  0.33560000  0.88175000  1.0
  Cl-  Cl2  1  0.25204000  0.33560000  0.38175000  1.0
  Cl-  Cl2  1  0.25204000  0.33560000  0.88175000  1.0
  Cl-  Cl2  1  0.45204000  0.33560000  0.38175000  1.0
  Cl-  Cl2  1  0.45204000  0.33560000  0.88175000  1.0
  Cl-  Cl2  1  0.65204000  0.33560000  0.38175000  1.0
  Cl-  Cl2  1  0.65204000  0.33560000  0.88175000  1.0
  Cl-  Cl2  1  0.85204000  0.33560000  0.38175000  1.0
  Cl-  Cl2  1  0.85204000  0.33560000  0.88175000  1.0
  Cl-  Cl2  1  0.05204000  0.66440000  0.38175000  1.0
  Cl-  Cl2  1  0.05204000  0.66440000  0.88175000  1.0
  Cl-  Cl2  1  0.25204000  0.66440000  0.38175000  1.0
  Cl-  Cl2  1  0.25204000  0.66440000  0.88175000  1.0
  Cl-  Cl2  1  0.45204000  0.66440000  0.38175000  1.0
  Cl-  Cl2  1  0.45204000  0.66440000  0.88175000  1.0
  Cl-  Cl2  1  0.65204000  0.66440000  0.38175000  1.0
  Cl-  Cl2  1  0.65204000  0.66440000  0.88175000  1.0
  Cl-  Cl2  1  0.85204000  0.66440000  0.38175000  1.0
  Cl-  Cl2  1  0.85204000  0.66440000  0.88175000  1.0
  Cl-  Cl2  1  0.14796000  0.33560000  0.11825000  1.0
  Cl-  Cl2  1  0.14796000  0.33560000  0.61825000  1.0
  Cl-  Cl2  1  0.34796000  0.33560000  0.11825000  1.0
  Cl-  Cl2  1  0.34796000  0.33560000  0.61825000  1.0
  Cl-  Cl2  1  0.54796000  0.33560000  0.11825000  1.0
  Cl-  Cl2  1  0.54796000  0.33560000  0.61825000  1.0
  Cl-  Cl2  1  0.74796000  0.33560000  0.11825000  1.0
  Cl-  Cl2  1  0.74796000  0.33560000  0.61825000  1.0
  Cl-  Cl2  1  0.94796000  0.33560000  0.11825000  1.0
  Cl-  Cl2  1  0.94796000  0.33560000  0.61825000  1.0
