# generated using pymatgen
data_Sr2Li2Al(PO4)3
_symmetry_space_group_name_H-M   'P 1'
_cell_length_a   9.89000000
_cell_length_b   8.63200000
_cell_length_c   22.08800000
_cell_angle_alpha   90.00000000
_cell_angle_beta   90.00000000
_cell_angle_gamma   91.47000000
_symmetry_Int_Tables_number   1
_chemical_formula_structural   Sr2Li2Al(PO4)3
_chemical_formula_sum   'Sr16 Li16 Al8 P24 O96'
_cell_volume   1885.04257949
_cell_formula_units_Z   8
loop_
 _symmetry_equiv_pos_site_id
 _symmetry_equiv_pos_as_xyz
  1  'x, y, z'
loop_
 _atom_type_symbol
 _atom_type_oxidation_number
  Sr2+  2.0
  Li+  1.0
  Al3+  3.0
  P5+  5.0
  O2-  -2.0
loop_
 _atom_site_type_symbol
 _atom_site_label
 _atom_site_symmetry_multiplicity
 _atom_site_fract_x
 _atom_site_fract_y
 _atom_site_fract_z
 _atom_site_occupancy
  Sr2+  Sr1  1  0.10849000  0.23597000  0.16034000  1.0
  Sr2+  Sr1  1  0.60849000  0.23597000  0.16034000  1.0
  Sr2+  Sr1  1  0.35849000  0.73597000  0.33966000  1.0
  Sr2+  Sr1  1  0.85849000  0.73597000  0.33966000  1.0
  Sr2+  Sr1  1  0.39151000  0.76403000  0.83966000  1.0
  Sr2+  Sr1  1  0.89151000  0.76403000  0.83966000  1.0
  Sr2+  Sr1  1  0.14151000  0.26403000  0.66034000  1.0
  Sr2+  Sr1  1  0.64151000  0.26403000  0.66034000  1.0
  Sr2+  Sr2  1  0.13176000  0.24358000  0.33910000  1.0
  Sr2+  Sr2  1  0.63176000  0.24358000  0.33910000  1.0
  Sr2+  Sr2  1  0.38176000  0.74358000  0.16090000  1.0
  Sr2+  Sr2  1  0.88176000  0.74358000  0.16090000  1.0
  Sr2+  Sr2  1  0.36824000  0.75642000  0.66090000  1.0
  Sr2+  Sr2  1  0.86824000  0.75642000  0.66090000  1.0
  Sr2+  Sr2  1  0.11824000  0.25642000  0.83910000  1.0
  Sr2+  Sr2  1  0.61824000  0.25642000  0.83910000  1.0
  Li+  Li1  1  0.36410000  0.40320000  0.06920000  1.0
  Li+  Li1  1  0.86410000  0.40320000  0.06920000  1.0
  Li+  Li1  1  0.11410000  0.90320000  0.43080000  1.0
  Li+  Li1  1  0.61410000  0.90320000  0.43080000  1.0
  Li+  Li1  1  0.13590000  0.59680000  0.93080000  1.0
  Li+  Li1  1  0.63590000  0.59680000  0.93080000  1.0
  Li+  Li1  1  0.38590000  0.09680000  0.56920000  1.0
  Li+  Li1  1  0.88590000  0.09680000  0.56920000  1.0
  Li+  Li2  1  0.11940000  0.56970000  0.26440000  1.0
  Li+  Li2  1  0.61940000  0.56970000  0.26440000  1.0
  Li+  Li2  1  0.36940000  0.06970000  0.23560000  1.0
  Li+  Li2  1  0.86940000  0.06970000  0.23560000  1.0
  Li+  Li2  1  0.38060000  0.43030000  0.73560000  1.0
  Li+  Li2  1  0.88060000  0.43030000  0.73560000  1.0
  Li+  Li2  1  0.13060000  0.93030000  0.76440000  1.0
  Li+  Li2  1  0.63060000  0.93030000  0.76440000  1.0
  Al3+  Al1  1  0.36895000  0.74988000  0.99119000  1.0
  Al3+  Al1  1  0.86895000  0.74988000  0.99119000  1.0
  Al3+  Al1  1  0.11895000  0.24988000  0.50881000  1.0
  Al3+  Al1  1  0.61895000  0.24988000  0.50881000  1.0
  Al3+  Al1  1  0.13105000  0.25012000  0.00881000  1.0
  Al3+  Al1  1  0.63105000  0.25012000  0.00881000  1.0
  Al3+  Al1  1  0.38105000  0.75012000  0.49119000  1.0
  Al3+  Al1  1  0.88105000  0.75012000  0.49119000  1.0
  P5+  P1  1  0.37085000  0.06534000  0.07627000  1.0
  P5+  P1  1  0.87085000  0.06534000  0.07627000  1.0
  P5+  P1  1  0.12085000  0.56534000  0.42373000  1.0
  P5+  P1  1  0.62085000  0.56534000  0.42373000  1.0
  P5+  P1  1  0.12915000  0.93466000  0.92373000  1.0
  P5+  P1  1  0.62915000  0.93466000  0.92373000  1.0
  P5+  P1  1  0.37915000  0.43466000  0.57627000  1.0
  P5+  P1  1  0.87915000  0.43466000  0.57627000  1.0
  P5+  P2  1  0.11170000  0.59699000  0.06615000  1.0
  P5+  P2  1  0.61170000  0.59699000  0.06615000  1.0
  P5+  P2  1  0.36170000  0.09699000  0.43385000  1.0
  P5+  P2  1  0.86170000  0.09699000  0.43385000  1.0
  P5+  P2  1  0.38830000  0.40301000  0.93385000  1.0
  P5+  P2  1  0.88830000  0.40301000  0.93385000  1.0
  P5+  P2  1  0.13830000  0.90301000  0.56615000  1.0
  P5+  P2  1  0.63830000  0.90301000  0.56615000  1.0
  P5+  P3  1  0.37140000  0.41005000  0.22719000  1.0
  P5+  P3  1  0.87140000  0.41005000  0.22719000  1.0
  P5+  P3  1  0.12140000  0.91005000  0.27281000  1.0
  P5+  P3  1  0.62140000  0.91005000  0.27281000  1.0
  P5+  P3  1  0.12860000  0.58995000  0.77281000  1.0
  P5+  P3  1  0.62860000  0.58995000  0.77281000  1.0
  P5+  P3  1  0.37860000  0.08995000  0.72719000  1.0
  P5+  P3  1  0.87860000  0.08995000  0.72719000  1.0
  O2-  O1  1  0.13500000  0.67310000  0.12667000  1.0
  O2-  O1  1  0.63500000  0.67310000  0.12667000  1.0
  O2-  O1  1  0.38500000  0.17310000  0.37333000  1.0
  O2-  O1  1  0.88500000  0.17310000  0.37333000  1.0
  O2-  O1  1  0.36500000  0.32690000  0.87333000  1.0
  O2-  O1  1  0.86500000  0.32690000  0.87333000  1.0
  O2-  O1  1  0.11500000  0.82690000  0.62667000  1.0
  O2-  O1  1  0.61500000  0.82690000  0.62667000  1.0
  O2-  O2  1  0.20530000  0.66270000  0.01694000  1.0
  O2-  O2  1  0.70530000  0.66270000  0.01694000  1.0
  O2-  O2  1  0.45530000  0.16270000  0.48306000  1.0
  O2-  O2  1  0.95530000  0.16270000  0.48306000  1.0
  O2-  O2  1  0.29470000  0.33730000  0.98306000  1.0
  O2-  O2  1  0.79470000  0.33730000  0.98306000  1.0
  O2-  O2  1  0.04470000  0.83730000  0.51694000  1.0
  O2-  O2  1  0.54470000  0.83730000  0.51694000  1.0
  O2-  O3  1  0.47735000  0.18320000  0.05262000  1.0
  O2-  O3  1  0.97735000  0.18320000  0.05262000  1.0
  O2-  O3  1  0.22735000  0.68320000  0.44738000  1.0
  O2-  O3  1  0.72735000  0.68320000  0.44738000  1.0
  O2-  O3  1  0.02265000  0.81680000  0.94738000  1.0
  O2-  O3  1  0.52265000  0.81680000  0.94738000  1.0
  O2-  O3  1  0.27265000  0.31680000  0.55262000  1.0
  O2-  O3  1  0.77265000  0.31680000  0.55262000  1.0
  O2-  O4  1  0.46175000  0.61720000  0.04671000  1.0
  O2-  O4  1  0.96175000  0.61720000  0.04671000  1.0
  O2-  O4  1  0.21175000  0.11720000  0.45329000  1.0
  O2-  O4  1  0.71175000  0.11720000  0.45329000  1.0
  O2-  O4  1  0.03825000  0.38280000  0.95329000  1.0
  O2-  O4  1  0.53825000  0.38280000  0.95329000  1.0
  O2-  O4  1  0.28825000  0.88280000  0.54671000  1.0
  O2-  O4  1  0.78825000  0.88280000  0.54671000  1.0
  O2-  O5  1  0.44935000  0.27120000  0.25048000  1.0
  O2-  O5  1  0.94935000  0.27120000  0.25048000  1.0
  O2-  O5  1  0.19935000  0.77120000  0.24952000  1.0
  O2-  O5  1  0.69935000  0.77120000  0.24952000  1.0
  O2-  O5  1  0.05065000  0.72880000  0.74952000  1.0
  O2-  O5  1  0.55065000  0.72880000  0.74952000  1.0
  O2-  O5  1  0.30065000  0.22880000  0.75048000  1.0
  O2-  O5  1  0.80065000  0.22880000  0.75048000  1.0
  O2-  O6  1  0.22120000  0.39400000  0.24418000  1.0
  O2-  O6  1  0.72120000  0.39400000  0.24418000  1.0
  O2-  O6  1  0.47120000  0.89400000  0.25582000  1.0
  O2-  O6  1  0.97120000  0.89400000  0.25582000  1.0
  O2-  O6  1  0.27880000  0.60600000  0.75582000  1.0
  O2-  O6  1  0.77880000  0.60600000  0.75582000  1.0
  O2-  O6  1  0.02880000  0.10600000  0.74418000  1.0
  O2-  O6  1  0.52880000  0.10600000  0.74418000  1.0
  O2-  O7  1  0.13525000  0.42010000  0.07027000  1.0
  O2-  O7  1  0.63525000  0.42010000  0.07027000  1.0
  O2-  O7  1  0.38525000  0.92010000  0.42973000  1.0
  O2-  O7  1  0.88525000  0.92010000  0.42973000  1.0
  O2-  O7  1  0.36475000  0.57990000  0.92973000  1.0
  O2-  O7  1  0.86475000  0.57990000  0.92973000  1.0
  O2-  O7  1  0.11475000  0.07990000  0.57027000  1.0
  O2-  O7  1  0.61475000  0.07990000  0.57027000  1.0
  O2-  O8  1  0.18200000  0.06210000  0.24668000  1.0
  O2-  O8  1  0.68200000  0.06210000  0.24668000  1.0
  O2-  O8  1  0.43200000  0.56210000  0.25332000  1.0
  O2-  O8  1  0.93200000  0.56210000  0.25332000  1.0
  O2-  O8  1  0.31800000  0.93790000  0.75332000  1.0
  O2-  O8  1  0.81800000  0.93790000  0.75332000  1.0
  O2-  O8  1  0.06800000  0.43790000  0.74668000  1.0
  O2-  O8  1  0.56800000  0.43790000  0.74668000  1.0
  O2-  O9  1  0.23125000  0.13680000  0.06717000  1.0
  O2-  O9  1  0.73125000  0.13680000  0.06717000  1.0
  O2-  O9  1  0.48125000  0.63680000  0.43283000  1.0
  O2-  O9  1  0.98125000  0.63680000  0.43283000  1.0
  O2-  O9  1  0.26875000  0.86320000  0.93283000  1.0
  O2-  O9  1  0.76875000  0.86320000  0.93283000  1.0
  O2-  O9  1  0.01875000  0.36320000  0.56717000  1.0
  O2-  O9  1  0.51875000  0.36320000  0.56717000  1.0
  O2-  O10  1  0.37835000  0.90570000  0.04760000  1.0
  O2-  O10  1  0.87835000  0.90570000  0.04760000  1.0
  O2-  O10  1  0.12835000  0.40570000  0.45240000  1.0
  O2-  O10  1  0.62835000  0.40570000  0.45240000  1.0
  O2-  O10  1  0.12165000  0.09430000  0.95240000  1.0
  O2-  O10  1  0.62165000  0.09430000  0.95240000  1.0
  O2-  O10  1  0.37165000  0.59430000  0.54760000  1.0
  O2-  O10  1  0.87165000  0.59430000  0.54760000  1.0
  O2-  O11  1  0.38350000  0.41590000  0.15765000  1.0
  O2-  O11  1  0.88350000  0.41590000  0.15765000  1.0
  O2-  O11  1  0.13350000  0.91590000  0.34235000  1.0
  O2-  O11  1  0.63350000  0.91590000  0.34235000  1.0
  O2-  O11  1  0.11650000  0.58410000  0.84235000  1.0
  O2-  O11  1  0.61650000  0.58410000  0.84235000  1.0
  O2-  O11  1  0.36650000  0.08410000  0.65765000  1.0
  O2-  O11  1  0.86650000  0.08410000  0.65765000  1.0
  O2-  O12  1  0.39425000  0.04450000  0.14440000  1.0
  O2-  O12  1  0.89425000  0.04450000  0.14440000  1.0
  O2-  O12  1  0.14425000  0.54450000  0.35560000  1.0
  O2-  O12  1  0.64425000  0.54450000  0.35560000  1.0
  O2-  O12  1  0.10575000  0.95550000  0.85560000  1.0
  O2-  O12  1  0.60575000  0.95550000  0.85560000  1.0
  O2-  O12  1  0.35575000  0.45550000  0.64440000  1.0
  O2-  O12  1  0.85575000  0.45550000  0.64440000  1.0
