# generated using pymatgen
data_LiGaSiO4
_symmetry_space_group_name_H-M   'P 1'
_cell_length_a   16.88018039
_cell_length_b   8.44009019
_cell_length_c   16.88018038
_cell_angle_alpha   107.84246827
_cell_angle_beta   107.84246827
_cell_angle_gamma   107.84246827
_symmetry_Int_Tables_number   1
_chemical_formula_structural   LiGaSiO4
_chemical_formula_sum   'Li24 Ga24 Si24 O96'
_cell_volume   1954.98914558
_cell_formula_units_Z   24
loop_
 _symmetry_equiv_pos_site_id
 _symmetry_equiv_pos_as_xyz
  1  'x, y, z'
loop_
 _atom_type_symbol
 _atom_type_oxidation_number
  Li+  1.0
  Ga3+  3.0
  Si4+  4.0
  O2-  -2.0
loop_
 _atom_site_type_symbol
 _atom_site_label
 _atom_site_symmetry_multiplicity
 _atom_site_fract_x
 _atom_site_fract_y
 _atom_site_fract_z
 _atom_site_occupancy
  Li+  Li1  1  0.21480000  0.60190000  0.10155000  1.0
  Li+  Li1  1  0.21480000  0.60190000  0.60155000  1.0
  Li+  Li1  1  0.71480000  0.60190000  0.10155000  1.0
  Li+  Li1  1  0.71480000  0.60190000  0.60155000  1.0
  Li+  Li1  1  0.30095000  0.20310000  0.21480000  1.0
  Li+  Li1  1  0.30095000  0.20310000  0.71480000  1.0
  Li+  Li1  1  0.80095000  0.20310000  0.21480000  1.0
  Li+  Li1  1  0.80095000  0.20310000  0.71480000  1.0
  Li+  Li1  1  0.10155000  0.42960000  0.30095000  1.0
  Li+  Li1  1  0.10155000  0.42960000  0.80095000  1.0
  Li+  Li1  1  0.60155000  0.42960000  0.30095000  1.0
  Li+  Li1  1  0.60155000  0.42960000  0.80095000  1.0
  Li+  Li2  1  0.35935000  0.11720000  0.44420000  1.0
  Li+  Li2  1  0.35935000  0.11720000  0.94420000  1.0
  Li+  Li2  1  0.85935000  0.11720000  0.44420000  1.0
  Li+  Li2  1  0.85935000  0.11720000  0.94420000  1.0
  Li+  Li2  1  0.05860000  0.88840000  0.35935000  1.0
  Li+  Li2  1  0.05860000  0.88840000  0.85935000  1.0
  Li+  Li2  1  0.55860000  0.88840000  0.35935000  1.0
  Li+  Li2  1  0.55860000  0.88840000  0.85935000  1.0
  Li+  Li2  1  0.44420000  0.71870000  0.05860000  1.0
  Li+  Li2  1  0.44420000  0.71870000  0.55860000  1.0
  Li+  Li2  1  0.94420000  0.71870000  0.05860000  1.0
  Li+  Li2  1  0.94420000  0.71870000  0.55860000  1.0
  Ga3+  Ga1  1  0.38495000  0.94590000  0.26720000  1.0
  Ga3+  Ga1  1  0.38495000  0.94590000  0.76720000  1.0
  Ga3+  Ga1  1  0.88495000  0.94590000  0.26720000  1.0
  Ga3+  Ga1  1  0.88495000  0.94590000  0.76720000  1.0
  Ga3+  Ga1  1  0.47295000  0.53440000  0.38495000  1.0
  Ga3+  Ga1  1  0.47295000  0.53440000  0.88495000  1.0
  Ga3+  Ga1  1  0.97295000  0.53440000  0.38495000  1.0
  Ga3+  Ga1  1  0.97295000  0.53440000  0.88495000  1.0
  Ga3+  Ga1  1  0.26720000  0.76990000  0.47295000  1.0
  Ga3+  Ga1  1  0.26720000  0.76990000  0.97295000  1.0
  Ga3+  Ga1  1  0.76720000  0.76990000  0.47295000  1.0
  Ga3+  Ga1  1  0.76720000  0.76990000  0.97295000  1.0
  Ga3+  Ga2  1  0.11825000  0.05450000  0.22955000  1.0
  Ga3+  Ga2  1  0.11825000  0.05450000  0.72955000  1.0
  Ga3+  Ga2  1  0.61825000  0.05450000  0.22955000  1.0
  Ga3+  Ga2  1  0.61825000  0.05450000  0.72955000  1.0
  Ga3+  Ga2  1  0.02725000  0.45910000  0.11825000  1.0
  Ga3+  Ga2  1  0.02725000  0.45910000  0.61825000  1.0
  Ga3+  Ga2  1  0.52725000  0.45910000  0.11825000  1.0
  Ga3+  Ga2  1  0.52725000  0.45910000  0.61825000  1.0
  Ga3+  Ga2  1  0.22955000  0.23650000  0.02725000  1.0
  Ga3+  Ga2  1  0.22955000  0.23650000  0.52725000  1.0
  Ga3+  Ga2  1  0.72955000  0.23650000  0.02725000  1.0
  Ga3+  Ga2  1  0.72955000  0.23650000  0.52725000  1.0
  Si4+  Si1  1  0.28375000  0.38790000  0.39825000  1.0
  Si4+  Si1  1  0.28375000  0.38790000  0.89825000  1.0
  Si4+  Si1  1  0.78375000  0.38790000  0.39825000  1.0
  Si4+  Si1  1  0.78375000  0.38790000  0.89825000  1.0
  Si4+  Si1  1  0.19395000  0.79650000  0.28375000  1.0
  Si4+  Si1  1  0.19395000  0.79650000  0.78375000  1.0
  Si4+  Si1  1  0.69395000  0.79650000  0.28375000  1.0
  Si4+  Si1  1  0.69395000  0.79650000  0.78375000  1.0
  Si4+  Si1  1  0.39825000  0.56750000  0.19395000  1.0
  Si4+  Si1  1  0.39825000  0.56750000  0.69395000  1.0
  Si4+  Si1  1  0.89825000  0.56750000  0.19395000  1.0
  Si4+  Si1  1  0.89825000  0.56750000  0.69395000  1.0
  Si4+  Si2  1  0.14095000  0.87390000  0.04840000  1.0
  Si4+  Si2  1  0.14095000  0.87390000  0.54840000  1.0
  Si4+  Si2  1  0.64095000  0.87390000  0.04840000  1.0
  Si4+  Si2  1  0.64095000  0.87390000  0.54840000  1.0
  Si4+  Si2  1  0.43695000  0.09680000  0.14095000  1.0
  Si4+  Si2  1  0.43695000  0.09680000  0.64095000  1.0
  Si4+  Si2  1  0.93695000  0.09680000  0.14095000  1.0
  Si4+  Si2  1  0.93695000  0.09680000  0.64095000  1.0
  Si4+  Si2  1  0.04840000  0.28190000  0.43695000  1.0
  Si4+  Si2  1  0.04840000  0.28190000  0.93695000  1.0
  Si4+  Si2  1  0.54840000  0.28190000  0.43695000  1.0
  Si4+  Si2  1  0.54840000  0.28190000  0.93695000  1.0
  O2-  O1  1  0.46950000  0.63320000  0.30180000  1.0
  O2-  O1  1  0.46950000  0.63320000  0.80180000  1.0
  O2-  O1  1  0.96950000  0.63320000  0.30180000  1.0
  O2-  O1  1  0.96950000  0.63320000  0.80180000  1.0
  O2-  O1  1  0.31660000  0.60360000  0.46950000  1.0
  O2-  O1  1  0.31660000  0.60360000  0.96950000  1.0
  O2-  O1  1  0.81660000  0.60360000  0.46950000  1.0
  O2-  O1  1  0.81660000  0.60360000  0.96950000  1.0
  O2-  O1  1  0.30180000  0.93900000  0.31660000  1.0
  O2-  O1  1  0.30180000  0.93900000  0.81660000  1.0
  O2-  O1  1  0.80180000  0.93900000  0.31660000  1.0
  O2-  O1  1  0.80180000  0.93900000  0.81660000  1.0
  O2-  O2  1  0.01100000  0.31040000  0.17615000  1.0
  O2-  O2  1  0.01100000  0.31040000  0.67615000  1.0
  O2-  O2  1  0.51100000  0.31040000  0.17615000  1.0
  O2-  O2  1  0.51100000  0.31040000  0.67615000  1.0
  O2-  O2  1  0.15520000  0.35230000  0.01100000  1.0
  O2-  O2  1  0.15520000  0.35230000  0.51100000  1.0
  O2-  O2  1  0.65520000  0.35230000  0.01100000  1.0
  O2-  O2  1  0.65520000  0.35230000  0.51100000  1.0
  O2-  O2  1  0.17615000  0.02200000  0.15520000  1.0
  O2-  O2  1  0.17615000  0.02200000  0.65520000  1.0
  O2-  O2  1  0.67615000  0.02200000  0.15520000  1.0
  O2-  O2  1  0.67615000  0.02200000  0.65520000  1.0
  O2-  O3  1  0.20370000  0.76020000  0.04325000  1.0
  O2-  O3  1  0.20370000  0.76020000  0.54325000  1.0
  O2-  O3  1  0.70370000  0.76020000  0.04325000  1.0
  O2-  O3  1  0.70370000  0.76020000  0.54325000  1.0
  O2-  O3  1  0.38010000  0.08650000  0.20370000  1.0
  O2-  O3  1  0.38010000  0.08650000  0.70370000  1.0
  O2-  O3  1  0.88010000  0.08650000  0.20370000  1.0
  O2-  O3  1  0.88010000  0.08650000  0.70370000  1.0
  O2-  O3  1  0.04325000  0.40740000  0.38010000  1.0
  O2-  O3  1  0.04325000  0.40740000  0.88010000  1.0
  O2-  O3  1  0.54325000  0.40740000  0.38010000  1.0
  O2-  O3  1  0.54325000  0.40740000  0.88010000  1.0
  O2-  O4  1  0.29010000  0.26450000  0.45660000  1.0
  O2-  O4  1  0.29010000  0.26450000  0.95660000  1.0
  O2-  O4  1  0.79010000  0.26450000  0.45660000  1.0
  O2-  O4  1  0.79010000  0.26450000  0.95660000  1.0
  O2-  O4  1  0.13225000  0.91320000  0.29010000  1.0
  O2-  O4  1  0.13225000  0.91320000  0.79010000  1.0
  O2-  O4  1  0.63225000  0.91320000  0.29010000  1.0
  O2-  O4  1  0.63225000  0.91320000  0.79010000  1.0
  O2-  O4  1  0.45660000  0.58020000  0.13225000  1.0
  O2-  O4  1  0.45660000  0.58020000  0.63225000  1.0
  O2-  O4  1  0.95660000  0.58020000  0.13225000  1.0
  O2-  O4  1  0.95660000  0.58020000  0.63225000  1.0
  O2-  O5  1  0.49620000  0.97830000  0.15730000  1.0
  O2-  O5  1  0.49620000  0.97830000  0.65730000  1.0
  O2-  O5  1  0.99620000  0.97830000  0.15730000  1.0
  O2-  O5  1  0.99620000  0.97830000  0.65730000  1.0
  O2-  O5  1  0.48915000  0.31460000  0.49620000  1.0
  O2-  O5  1  0.48915000  0.31460000  0.99620000  1.0
  O2-  O5  1  0.98915000  0.31460000  0.49620000  1.0
  O2-  O5  1  0.98915000  0.31460000  0.99620000  1.0
  O2-  O5  1  0.15730000  0.99240000  0.48915000  1.0
  O2-  O5  1  0.15730000  0.99240000  0.98915000  1.0
  O2-  O5  1  0.65730000  0.99240000  0.48915000  1.0
  O2-  O5  1  0.65730000  0.99240000  0.98915000  1.0
  O2-  O6  1  0.00225000  0.06140000  0.36445000  1.0
  O2-  O6  1  0.00225000  0.06140000  0.86445000  1.0
  O2-  O6  1  0.50225000  0.06140000  0.36445000  1.0
  O2-  O6  1  0.50225000  0.06140000  0.86445000  1.0
  O2-  O6  1  0.03070000  0.72890000  0.00225000  1.0
  O2-  O6  1  0.03070000  0.72890000  0.50225000  1.0
  O2-  O6  1  0.53070000  0.72890000  0.00225000  1.0
  O2-  O6  1  0.53070000  0.72890000  0.50225000  1.0
  O2-  O6  1  0.36445000  0.00450000  0.03070000  1.0
  O2-  O6  1  0.36445000  0.00450000  0.53070000  1.0
  O2-  O6  1  0.86445000  0.00450000  0.03070000  1.0
  O2-  O6  1  0.86445000  0.00450000  0.53070000  1.0
  O2-  O7  1  0.14915000  0.63250000  0.17890000  1.0
  O2-  O7  1  0.14915000  0.63250000  0.67890000  1.0
  O2-  O7  1  0.64915000  0.63250000  0.17890000  1.0
  O2-  O7  1  0.64915000  0.63250000  0.67890000  1.0
  O2-  O7  1  0.31625000  0.35780000  0.14915000  1.0
  O2-  O7  1  0.31625000  0.35780000  0.64915000  1.0
  O2-  O7  1  0.81625000  0.35780000  0.14915000  1.0
  O2-  O7  1  0.81625000  0.35780000  0.64915000  1.0
  O2-  O7  1  0.17890000  0.29830000  0.31625000  1.0
  O2-  O7  1  0.17890000  0.29830000  0.81625000  1.0
  O2-  O7  1  0.67890000  0.29830000  0.31625000  1.0
  O2-  O7  1  0.67890000  0.29830000  0.81625000  1.0
  O2-  O8  1  0.35355000  0.37940000  0.35010000  1.0
  O2-  O8  1  0.35355000  0.37940000  0.85010000  1.0
  O2-  O8  1  0.85355000  0.37940000  0.35010000  1.0
  O2-  O8  1  0.85355000  0.37940000  0.85010000  1.0
  O2-  O8  1  0.18970000  0.70020000  0.35355000  1.0
  O2-  O8  1  0.18970000  0.70020000  0.85355000  1.0
  O2-  O8  1  0.68970000  0.70020000  0.35355000  1.0
  O2-  O8  1  0.68970000  0.70020000  0.85355000  1.0
  O2-  O8  1  0.35010000  0.70710000  0.18970000  1.0
  O2-  O8  1  0.35010000  0.70710000  0.68970000  1.0
  O2-  O8  1  0.85010000  0.70710000  0.18970000  1.0
  O2-  O8  1  0.85010000  0.70710000  0.68970000  1.0
