# generated using pymatgen
data_BaSrLi12La4Ta4O24
_symmetry_space_group_name_H-M   'P 1'
_cell_length_a   22.36993848
_cell_length_b   11.18496924
_cell_length_c   11.18496924
_cell_angle_alpha   109.47122063
_cell_angle_beta   70.52877937
_cell_angle_gamma   70.52877937
_symmetry_Int_Tables_number   1
_chemical_formula_structural   BaSrLi12La4Ta4O24
_chemical_formula_sum   'Ba4 Sr4 Li48 La16 Ta16 O96'
_cell_volume   2154.33127967
_cell_formula_units_Z   4
loop_
 _symmetry_equiv_pos_site_id
 _symmetry_equiv_pos_as_xyz
  1  'x, y, z'
loop_
 _atom_type_symbol
 _atom_type_oxidation_number
  Ba2+  2.0
  Sr2+  2.0
  Li+  1.0
  La3+  3.0
  Ta5+  5.0
  O2-  -2.0
loop_
 _atom_site_type_symbol
 _atom_site_label
 _atom_site_symmetry_multiplicity
 _atom_site_fract_x
 _atom_site_fract_y
 _atom_site_fract_z
 _atom_site_occupancy
  Ba2+  Ba0  1  0.37500000  0.12500000  0.62500000  1.0
  Ba2+  Ba1  1  0.87243601  0.12760587  0.62375615  1.0
  Ba2+  Ba2  1  0.43750000  0.75000000  0.62500000  1.0
  Ba2+  Ba3  1  0.93750000  0.75000000  0.62500000  1.0
  Sr2+  Sr4  1  0.37798978  0.62696390  0.12741546  1.0
  Sr2+  Sr5  1  0.87500000  0.62500000  0.12500000  1.0
  Sr2+  Sr6  1  0.12500000  0.87500000  0.87500000  1.0
  Sr2+  Sr7  1  0.62500000  0.87500000  0.87500000  1.0
  Li+  Li8  1  0.37500000  0.87500000  0.37500000  1.0
  Li+  Li9  1  0.87500000  0.87500000  0.37500000  1.0
  Li+  Li10  1  0.12500000  0.62500000  0.62500000  1.0
  Li+  Li11  1  0.62500000  0.62500000  0.62500000  1.0
  Li+  Li12  1  0.31149534  0.75095751  0.87444154  1.0
  Li+  Li13  1  0.81250000  0.75000000  0.87500000  1.0
  Li+  Li14  1  0.43458327  0.25086536  0.12634080  1.0
  Li+  Li15  1  0.93750000  0.25000000  0.12500000  1.0
  Li+  Li16  1  0.37516651  0.37025113  0.87647389  1.0
  Li+  Li17  1  0.87585538  0.37420099  0.87830279  1.0
  Li+  Li18  1  0.06250000  0.75000000  0.37500000  1.0
  Li+  Li19  1  0.56250000  0.75000000  0.37500000  1.0
  Li+  Li20  1  0.05530773  0.94448004  0.44358865  1.0
  Li+  Li21  1  0.55368422  0.95100299  0.44734913  1.0
  Li+  Li22  1  0.19597871  0.30527972  0.80644417  1.0
  Li+  Li23  1  0.70036953  0.29733480  0.80420008  1.0
  Li+  Li24  1  0.12500000  0.19640000  0.55360000  1.0
  Li+  Li25  1  0.62687744  0.19022839  0.55470922  1.0
  Li+  Li26  1  0.12500000  0.55360000  0.19640000  1.0
  Li+  Li27  1  0.62681245  0.55573000  0.19259578  1.0
  Li+  Li28  1  0.40180000  0.30360000  0.00000000  1.0
  Li+  Li29  1  0.90180000  0.30360000  0.00000000  1.0
  Li+  Li30  1  0.22320000  0.94640000  0.00000000  1.0
  Li+  Li31  1  0.72320000  0.94640000  0.00000000  1.0
  Li+  Li32  1  0.02865924  0.19357857  0.14070121  1.0
  Li+  Li33  1  0.52689535  0.19190452  0.14120948  1.0
  Li+  Li34  1  0.02699896  0.74747069  0.80519339  1.0
  Li+  Li35  1  0.52680000  0.75000000  0.80360000  1.0
  Li+  Li36  1  0.34820000  0.75000000  0.44640000  1.0
  Li+  Li37  1  0.84887694  0.75711033  0.44762783  1.0
  Li+  Li38  1  0.22320000  0.60720000  0.55360000  1.0
  Li+  Li39  1  0.72320000  0.60720000  0.55360000  1.0
  Li+  Li40  1  0.40180000  0.89280000  0.19640000  1.0
  Li+  Li41  1  0.90180000  0.89280000  0.19640000  1.0
  Li+  Li42  1  0.30360000  0.69640000  0.69640000  1.0
  Li+  Li43  1  0.80360000  0.69640000  0.69640000  1.0
  Li+  Li44  1  0.37271251  0.80211960  0.94591247  1.0
  Li+  Li45  1  0.87500000  0.80360000  0.94640000  1.0
  Li+  Li46  1  0.09820000  0.69640000  0.50000000  1.0
  Li+  Li47  1  0.59820000  0.69640000  0.50000000  1.0
  Li+  Li48  1  0.15175928  0.44610290  0.64031905  1.0
  Li+  Li49  1  0.65180000  0.44640000  0.64280000  1.0
  Li+  Li50  1  0.15180000  0.25000000  0.05360000  1.0
  Li+  Li51  1  0.65180000  0.25000000  0.05360000  1.0
  Li+  Li52  1  0.27680000  0.39280000  0.94640000  1.0
  Li+  Li53  1  0.77680000  0.39280000  0.94640000  1.0
  Li+  Li54  1  0.09866749  0.10757085  0.30048157  1.0
  Li+  Li55  1  0.59820000  0.10720000  0.30360000  1.0
  La3+  La56  1  0.06250000  0.62500000  0.00000000  1.0
  La3+  La57  1  0.56250000  0.62500000  0.00000000  1.0
  La3+  La58  1  0.18750000  0.87500000  0.50000000  1.0
  La3+  La59  1  0.68750000  0.87500000  0.50000000  1.0
  La3+  La60  1  0.18750000  0.75000000  0.12500000  1.0
  La3+  La61  1  0.68750000  0.75000000  0.12500000  1.0
  La3+  La62  1  0.06250000  0.25000000  0.87500000  1.0
  La3+  La63  1  0.56250000  0.25000000  0.87500000  1.0
  La3+  La64  1  0.12500000  0.37500000  0.37500000  1.0
  La3+  La65  1  0.62551740  0.37599127  0.37235917  1.0
  La3+  La66  1  0.43750000  0.37500000  0.50000000  1.0
  La3+  La67  1  0.93750000  0.37500000  0.50000000  1.0
  La3+  La68  1  0.30870702  0.12588407  0.99970632  1.0
  La3+  La69  1  0.81388133  0.12364507  0.00060809  1.0
  La3+  La70  1  0.31250000  0.25000000  0.37500000  1.0
  La3+  La71  1  0.81250000  0.25000000  0.37500000  1.0
  Ta5+  Ta72  1  0.00000000  0.50000000  0.75000000  1.0
  Ta5+  Ta73  1  0.50000000  0.50000000  0.75000000  1.0
  Ta5+  Ta74  1  0.25000000  0.50000000  0.25000000  1.0
  Ta5+  Ta75  1  0.75000000  0.50000000  0.25000000  1.0
  Ta5+  Ta76  1  0.00000000  0.00000000  0.25000000  1.0
  Ta5+  Ta77  1  0.50000000  0.00000000  0.25000000  1.0
  Ta5+  Ta78  1  0.25000000  0.00000000  0.75000000  1.0
  Ta5+  Ta79  1  0.75000000  0.00000000  0.75000000  1.0
  Ta5+  Ta80  1  0.99860022  0.49990833  0.24442103  1.0
  Ta5+  Ta81  1  0.50000000  0.50000000  0.25000000  1.0
  Ta5+  Ta82  1  0.25000000  0.50000000  0.75000000  1.0
  Ta5+  Ta83  1  0.75000000  0.50000000  0.75000000  1.0
  Ta5+  Ta84  1  0.25000000  0.00000000  0.25000000  1.0
  Ta5+  Ta85  1  0.75000000  0.00000000  0.25000000  1.0
  Ta5+  Ta86  1  0.00000000  0.00000000  0.75000000  1.0
  Ta5+  Ta87  1  0.50000000  0.00000000  0.75000000  1.0
  O2-  O88  1  0.45068074  0.41767716  0.85872112  1.0
  O2-  O89  1  0.95357371  0.42371162  0.86152112  1.0
  O2-  O90  1  0.29715500  0.51705000  0.07508000  1.0
  O2-  O91  1  0.79715500  0.51705000  0.07508000  1.0
  O2-  O92  1  0.09754771  0.98149005  0.14000501  1.0
  O2-  O93  1  0.59868432  0.98174375  0.14178394  1.0
  O2-  O94  1  0.15401500  0.08061000  0.92492000  1.0
  O2-  O95  1  0.65439132  0.07657543  0.92331258  1.0
  O2-  O96  1  0.01092103  0.89101985  0.05710012  1.0
  O2-  O97  1  0.50695797  0.88788782  0.05412022  1.0
  O2-  O98  1  0.45969500  0.67492000  0.94197000  1.0
  O2-  O99  1  0.95969500  0.67492000  0.94197000  1.0
  O2-  O100  1  0.29030500  0.61136000  0.34431000  1.0
  O2-  O101  1  0.79030500  0.61136000  0.34431000  1.0
  O2-  O102  1  0.24147500  0.82508000  0.65569000  1.0
  O2-  O103  1  0.74147500  0.82508000  0.65569000  1.0
  O2-  O104  1  0.16254000  0.69197000  0.33061000  1.0
  O2-  O105  1  0.66562868  0.68987595  0.33038481  1.0
  O2-  O106  1  0.05013383  0.80967513  0.23440360  1.0
  O2-  O107  1  0.55568000  0.80803000  0.23295000  1.0
  O2-  O108  1  0.08746000  0.40569000  0.76705000  1.0
  O2-  O109  1  0.58746000  0.40569000  0.76705000  1.0
  O2-  O110  1  0.19432000  0.09431000  0.66939000  1.0
  O2-  O111  1  0.69432000  0.09431000  0.66939000  1.0
  O2-  O112  1  0.04715500  0.58061000  0.63864000  1.0
  O2-  O113  1  0.54668890  0.58271899  0.63828509  1.0
  O2-  O114  1  0.20669083  0.48560348  0.42480598  1.0
  O2-  O115  1  0.70284500  0.48295000  0.42492000  1.0
  O2-  O116  1  0.40401500  0.01705000  0.36136000  1.0
  O2-  O117  1  0.90401500  0.01705000  0.36136000  1.0
  O2-  O118  1  0.34598500  0.91939000  0.57508000  1.0
  O2-  O119  1  0.84598500  0.91939000  0.57508000  1.0
  O2-  O120  1  0.49147500  0.11136000  0.44197000  1.0
  O2-  O121  1  0.98845203  0.11093614  0.44153280  1.0
  O2-  O122  1  0.04030500  0.32508000  0.55803000  1.0
  O2-  O123  1  0.54030500  0.32508000  0.55803000  1.0
  O2-  O124  1  0.21352121  0.39111114  0.15411004  1.0
  O2-  O125  1  0.70969500  0.38864000  0.15569000  1.0
  O2-  O126  1  0.25852500  0.17492000  0.84431000  1.0
  O2-  O127  1  0.75852500  0.17492000  0.84431000  1.0
  O2-  O128  1  0.33746000  0.30803000  0.16939000  1.0
  O2-  O129  1  0.83746000  0.30803000  0.16939000  1.0
  O2-  O130  1  0.44432000  0.19197000  0.26705000  1.0
  O2-  O131  1  0.94432000  0.19197000  0.26705000  1.0
  O2-  O132  1  0.41254000  0.59431000  0.73295000  1.0
  O2-  O133  1  0.91254000  0.59431000  0.73295000  1.0
  O2-  O134  1  0.30568000  0.90569000  0.83061000  1.0
  O2-  O135  1  0.80568000  0.90569000  0.83061000  1.0
  O2-  O136  1  0.41382934  0.57573383  0.43838732  1.0
  O2-  O137  1  0.91247037  0.58380597  0.44058272  1.0
  O2-  O138  1  0.30568000  0.48295000  0.55803000  1.0
  O2-  O139  1  0.80793988  0.47996342  0.55476537  1.0
  O2-  O140  1  0.33746000  0.01705000  0.15569000  1.0
  O2-  O141  1  0.83746000  0.01705000  0.15569000  1.0
  O2-  O142  1  0.44432000  0.91939000  0.84431000  1.0
  O2-  O143  1  0.94432000  0.91939000  0.84431000  1.0
  O2-  O144  1  0.20284500  0.11136000  0.16939000  1.0
  O2-  O145  1  0.70284500  0.11136000  0.16939000  1.0
  O2-  O146  1  0.04279059  0.32509914  0.26550617  1.0
  O2-  O147  1  0.54715500  0.32508000  0.26705000  1.0
  O2-  O148  1  0.34598500  0.38864000  0.73295000  1.0
  O2-  O149  1  0.84598500  0.38864000  0.73295000  1.0
  O2-  O150  1  0.40401500  0.17492000  0.83061000  1.0
  O2-  O151  1  0.90401500  0.17492000  0.83061000  1.0
  O2-  O152  1  0.25852500  0.30803000  0.63864000  1.0
  O2-  O153  1  0.75852500  0.30803000  0.63864000  1.0
  O2-  O154  1  0.20969500  0.19197000  0.42492000  1.0
  O2-  O155  1  0.70433495  0.18935954  0.42144089  1.0
  O2-  O156  1  0.04030500  0.59431000  0.36136000  1.0
  O2-  O157  1  0.54030500  0.59431000  0.36136000  1.0
  O2-  O158  1  0.49611755  0.90589966  0.57470256  1.0
  O2-  O159  1  0.99147500  0.90569000  0.57508000  1.0
  O2-  O160  1  0.08810269  0.41642910  0.05617847  1.0
  O2-  O161  1  0.58746000  0.41939000  0.05803000  1.0
  O2-  O162  1  0.19432000  0.51705000  0.94197000  1.0
  O2-  O163  1  0.69432000  0.51705000  0.94197000  1.0
  O2-  O164  1  0.16254000  0.98295000  0.34431000  1.0
  O2-  O165  1  0.66468542  0.98211490  0.34137671  1.0
  O2-  O166  1  0.05568000  0.08061000  0.65569000  1.0
  O2-  O167  1  0.55568000  0.08061000  0.65569000  1.0
  O2-  O168  1  0.29715500  0.88864000  0.33061000  1.0
  O2-  O169  1  0.79715500  0.88864000  0.33061000  1.0
  O2-  O170  1  0.45284500  0.67492000  0.23295000  1.0
  O2-  O171  1  0.95284500  0.67492000  0.23295000  1.0
  O2-  O172  1  0.15401500  0.61136000  0.76705000  1.0
  O2-  O173  1  0.65401500  0.61136000  0.76705000  1.0
  O2-  O174  1  0.09598500  0.82508000  0.66939000  1.0
  O2-  O175  1  0.59519654  0.83175858  0.66720180  1.0
  O2-  O176  1  0.24742978  0.69326291  0.86096342  1.0
  O2-  O177  1  0.74147500  0.69197000  0.86136000  1.0
  O2-  O178  1  0.29030500  0.80803000  0.07508000  1.0
  O2-  O179  1  0.79030500  0.80803000  0.07508000  1.0
  O2-  O180  1  0.45969500  0.40569000  0.13864000  1.0
  O2-  O181  1  0.95969500  0.40569000  0.13864000  1.0
  O2-  O182  1  0.00852500  0.09431000  0.92492000  1.0
  O2-  O183  1  0.50852500  0.09431000  0.92492000  1.0
