# generated using pymatgen
data_BaSrLi12La4Ta4O24
_symmetry_space_group_name_H-M   'P 1'
_cell_length_a   11.24759263
_cell_length_b   22.49518526
_cell_length_c   11.24759263
_cell_angle_alpha   70.52877937
_cell_angle_beta   70.52877937
_cell_angle_gamma   109.47122063
_symmetry_Int_Tables_number   1
_chemical_formula_structural   BaSrLi12La4Ta4O24
_chemical_formula_sum   'Ba4 Sr4 Li48 La16 Ta16 O96'
_cell_volume   2190.71983540
_cell_formula_units_Z   4
loop_
 _symmetry_equiv_pos_site_id
 _symmetry_equiv_pos_as_xyz
  1  'x, y, z'
loop_
 _atom_type_symbol
 _atom_type_oxidation_number
  Ba2+  2.0
  Sr2+  2.0
  Li+  1.0
  La3+  3.0
  Ta5+  5.0
  O2-  -2.0
loop_
 _atom_site_type_symbol
 _atom_site_label
 _atom_site_symmetry_multiplicity
 _atom_site_fract_x
 _atom_site_fract_y
 _atom_site_fract_z
 _atom_site_occupancy
  Ba2+  Ba0  1  0.87500000  0.29166667  0.87500000  1.0
  Ba2+  Ba1  1  0.87500000  0.79166667  0.87500000  1.0
  Ba2+  Ba2  1  0.87500000  0.22916667  0.25000000  1.0
  Ba2+  Ba3  1  0.87500000  0.72916667  0.25000000  1.0
  Sr2+  Sr4  1  0.37500000  0.29166667  0.37500000  1.0
  Sr2+  Sr5  1  0.37500000  0.79166667  0.37500000  1.0
  Sr2+  Sr6  1  0.12500000  0.54166667  0.12500000  1.0
  Sr2+  Sr7  1  0.12500000  0.04166667  0.12500000  1.0
  Li+  Li8  1  0.62500000  0.29166667  0.12500000  1.0
  Li+  Li9  1  0.62500000  0.79166667  0.12500000  1.0
  Li+  Li10  1  0.87500000  0.54166667  0.37500000  1.0
  Li+  Li11  1  0.87500000  0.04166667  0.37500000  1.0
  Li+  Li12  1  0.12500000  0.35416667  0.25000000  1.0
  Li+  Li13  1  0.12500000  0.85416667  0.25000000  1.0
  Li+  Li14  1  0.37500000  0.22916667  0.75000000  1.0
  Li+  Li15  1  0.37500000  0.72916667  0.75000000  1.0
  Li+  Li16  1  0.12500000  0.29166667  0.62500000  1.0
  Li+  Li17  1  0.12500000  0.79166667  0.62500000  1.0
  Li+  Li18  1  0.62500000  0.60416667  0.25000000  1.0
  Li+  Li19  1  0.62500000  0.10416667  0.25000000  1.0
  Li+  Li20  1  0.69640000  0.61306667  0.05360000  1.0
  Li+  Li21  1  0.69640000  0.11306667  0.05360000  1.0
  Li+  Li22  1  0.05360000  0.47026667  0.69640000  1.0
  Li+  Li23  1  0.05360000  0.97026667  0.69640000  1.0
  Li+  Li24  1  0.80360000  0.54166667  0.80360000  1.0
  Li+  Li25  1  0.80360000  0.04166667  0.80360000  1.0
  Li+  Li26  1  0.44640000  0.54166667  0.44640000  1.0
  Li+  Li27  1  0.44640000  0.04166667  0.44640000  1.0
  Li+  Li28  1  0.25000000  0.26486667  0.69640000  1.0
  Li+  Li29  1  0.25000000  0.76486667  0.69640000  1.0
  Li+  Li30  1  0.25000000  0.44346667  0.05360000  1.0
  Li+  Li31  1  0.25000000  0.94346667  0.05360000  1.0
  Li+  Li32  1  0.39280000  0.63986667  0.80360000  1.0
  Li+  Li33  1  0.39280000  0.13986667  0.80360000  1.0
  Li+  Li34  1  0.05360000  0.63986667  0.25000000  1.0
  Li+  Li35  1  0.05360000  0.13986667  0.25000000  1.0
  Li+  Li36  1  0.69640000  0.31846667  0.25000000  1.0
  Li+  Li37  1  0.69640000  0.81846667  0.25000000  1.0
  Li+  Li38  1  0.80360000  0.44346667  0.39280000  1.0
  Li+  Li39  1  0.80360000  0.94346667  0.39280000  1.0
  Li+  Li40  1  0.44640000  0.26486667  0.10720000  1.0
  Li+  Li41  1  0.44640000  0.76486667  0.10720000  1.0
  Li+  Li42  1  0.94640000  0.36306667  0.30360000  1.0
  Li+  Li43  1  0.94640000  0.86306667  0.30360000  1.0
  Li+  Li44  1  0.19640000  0.29166667  0.19640000  1.0
  Li+  Li45  1  0.19640000  0.79166667  0.19640000  1.0
  Li+  Li46  1  0.75000000  0.56846667  0.30360000  1.0
  Li+  Li47  1  0.75000000  0.06846667  0.30360000  1.0
  Li+  Li48  1  0.89280000  0.51486667  0.55360000  1.0
  Li+  Li49  1  0.89280000  0.01486667  0.55360000  1.0
  Li+  Li50  1  0.30360000  0.51486667  0.75000000  1.0
  Li+  Li51  1  0.30360000  0.01486667  0.75000000  1.0
  Li+  Li52  1  0.19640000  0.38986667  0.60720000  1.0
  Li+  Li53  1  0.19640000  0.88986667  0.60720000  1.0
  Li+  Li54  1  0.55360000  0.56846667  0.89280000  1.0
  Li+  Li55  1  0.55360000  0.06846667  0.89280000  1.0
  La3+  La56  1  0.25000000  0.60416667  0.37500000  1.0
  La3+  La57  1  0.25000000  0.10416667  0.37500000  1.0
  La3+  La58  1  0.75000000  0.47916667  0.12500000  1.0
  La3+  La59  1  0.75000000  0.97916667  0.12500000  1.0
  La3+  La60  1  0.37500000  0.47916667  0.25000000  1.0
  La3+  La61  1  0.37500000  0.97916667  0.25000000  1.0
  La3+  La62  1  0.12500000  0.60416667  0.75000000  1.0
  La3+  La63  1  0.12500000  0.10416667  0.75000000  1.0
  La3+  La64  1  0.62500000  0.54166667  0.62500000  1.0
  La3+  La65  1  0.62500000  0.04166667  0.62500000  1.0
  La3+  La66  1  0.75000000  0.22916667  0.62500000  1.0
  La3+  La67  1  0.75000000  0.72916667  0.62500000  1.0
  La3+  La68  1  0.25000000  0.35416667  0.87500000  1.0
  La3+  La69  1  0.25000000  0.85416667  0.87500000  1.0
  La3+  La70  1  0.62500000  0.35416667  0.75000000  1.0
  La3+  La71  1  0.62500000  0.85416667  0.75000000  1.0
  Ta5+  Ta72  1  0.00000000  0.66666667  0.50000000  1.0
  Ta5+  Ta73  1  0.00000000  0.16666667  0.50000000  1.0
  Ta5+  Ta74  1  0.50000000  0.41666667  0.50000000  1.0
  Ta5+  Ta75  1  0.50000000  0.91666667  0.50000000  1.0
  Ta5+  Ta76  1  0.50000000  0.66666667  0.00000000  1.0
  Ta5+  Ta77  1  0.50000000  0.16666667  0.00000000  1.0
  Ta5+  Ta78  1  0.00000000  0.41666667  0.00000000  1.0
  Ta5+  Ta79  1  0.00000000  0.91666667  0.00000000  1.0
  Ta5+  Ta80  1  0.50000000  0.66666667  0.50000000  1.0
  Ta5+  Ta81  1  0.50000000  0.16666667  0.50000000  1.0
  Ta5+  Ta82  1  0.00000000  0.41666667  0.50000000  1.0
  Ta5+  Ta83  1  0.00000000  0.91666667  0.50000000  1.0
  Ta5+  Ta84  1  0.50000000  0.41666667  0.00000000  1.0
  Ta5+  Ta85  1  0.50000000  0.91666667  0.00000000  1.0
  Ta5+  Ta86  1  0.00000000  0.66666667  0.00000000  1.0
  Ta5+  Ta87  1  0.00000000  0.16666667  0.00000000  1.0
  O2-  O88  1  0.11136000  0.21382167  0.58061000  1.0
  O2-  O89  1  0.11136000  0.71382167  0.58061000  1.0
  O2-  O90  1  0.32508000  0.36951167  0.48295000  1.0
  O2-  O91  1  0.32508000  0.86951167  0.48295000  1.0
  O2-  O92  1  0.38864000  0.57068167  0.01705000  1.0
  O2-  O93  1  0.38864000  0.07068167  0.01705000  1.0
  O2-  O94  1  0.17492000  0.51265167  0.91939000  1.0
  O2-  O95  1  0.17492000  0.01265167  0.91939000  1.0
  O2-  O96  1  0.30803000  0.65814167  0.11136000  1.0
  O2-  O97  1  0.30803000  0.15814167  0.11136000  1.0
  O2-  O98  1  0.19197000  0.20697167  0.32508000  1.0
  O2-  O99  1  0.19197000  0.70697167  0.32508000  1.0
  O2-  O100  1  0.59431000  0.37636167  0.38864000  1.0
  O2-  O101  1  0.59431000  0.87636167  0.38864000  1.0
  O2-  O102  1  0.90569000  0.42519167  0.17492000  1.0
  O2-  O103  1  0.90569000  0.92519167  0.17492000  1.0
  O2-  O104  1  0.58061000  0.50412667  0.30803000  1.0
  O2-  O105  1  0.58061000  0.00412667  0.30803000  1.0
  O2-  O106  1  0.48295000  0.61098667  0.19197000  1.0
  O2-  O107  1  0.48295000  0.11098667  0.19197000  1.0
  O2-  O108  1  0.01705000  0.57920667  0.59431000  1.0
  O2-  O109  1  0.01705000  0.07920667  0.59431000  1.0
  O2-  O110  1  0.91939000  0.47234667  0.90569000  1.0
  O2-  O111  1  0.91939000  0.97234667  0.90569000  1.0
  O2-  O112  1  0.88864000  0.61951167  0.41939000  1.0
  O2-  O113  1  0.88864000  0.11951167  0.41939000  1.0
  O2-  O114  1  0.67492000  0.46382167  0.51705000  1.0
  O2-  O115  1  0.67492000  0.96382167  0.51705000  1.0
  O2-  O116  1  0.61136000  0.26265167  0.98295000  1.0
  O2-  O117  1  0.61136000  0.76265167  0.98295000  1.0
  O2-  O118  1  0.82508000  0.32068167  0.08061000  1.0
  O2-  O119  1  0.82508000  0.82068167  0.08061000  1.0
  O2-  O120  1  0.69197000  0.17519167  0.88864000  1.0
  O2-  O121  1  0.69197000  0.67519167  0.88864000  1.0
  O2-  O122  1  0.80803000  0.62636167  0.67492000  1.0
  O2-  O123  1  0.80803000  0.12636167  0.67492000  1.0
  O2-  O124  1  0.40569000  0.45697167  0.61136000  1.0
  O2-  O125  1  0.40569000  0.95697167  0.61136000  1.0
  O2-  O126  1  0.09431000  0.40814167  0.82508000  1.0
  O2-  O127  1  0.09431000  0.90814167  0.82508000  1.0
  O2-  O128  1  0.41939000  0.32920667  0.69197000  1.0
  O2-  O129  1  0.41939000  0.82920667  0.69197000  1.0
  O2-  O130  1  0.51705000  0.22234667  0.80803000  1.0
  O2-  O131  1  0.51705000  0.72234667  0.80803000  1.0
  O2-  O132  1  0.98295000  0.25412667  0.40569000  1.0
  O2-  O133  1  0.98295000  0.75412667  0.40569000  1.0
  O2-  O134  1  0.08061000  0.36098667  0.09431000  1.0
  O2-  O135  1  0.08061000  0.86098667  0.09431000  1.0
  O2-  O136  1  0.69197000  0.25412667  0.41939000  1.0
  O2-  O137  1  0.69197000  0.75412667  0.41939000  1.0
  O2-  O138  1  0.80803000  0.36098667  0.51705000  1.0
  O2-  O139  1  0.80803000  0.86098667  0.51705000  1.0
  O2-  O140  1  0.40569000  0.32920667  0.98295000  1.0
  O2-  O141  1  0.40569000  0.82920667  0.98295000  1.0
  O2-  O142  1  0.09431000  0.22234667  0.08061000  1.0
  O2-  O143  1  0.09431000  0.72234667  0.08061000  1.0
  O2-  O144  1  0.41939000  0.46382167  0.88864000  1.0
  O2-  O145  1  0.41939000  0.96382167  0.88864000  1.0
  O2-  O146  1  0.51705000  0.61951167  0.67492000  1.0
  O2-  O147  1  0.51705000  0.11951167  0.67492000  1.0
  O2-  O148  1  0.98295000  0.32068167  0.61136000  1.0
  O2-  O149  1  0.98295000  0.82068167  0.61136000  1.0
  O2-  O150  1  0.08061000  0.26265167  0.82508000  1.0
  O2-  O151  1  0.08061000  0.76265167  0.82508000  1.0
  O2-  O152  1  0.88864000  0.40814167  0.69197000  1.0
  O2-  O153  1  0.88864000  0.90814167  0.69197000  1.0
  O2-  O154  1  0.67492000  0.45697167  0.80803000  1.0
  O2-  O155  1  0.67492000  0.95697167  0.80803000  1.0
  O2-  O156  1  0.61136000  0.62636167  0.40569000  1.0
  O2-  O157  1  0.61136000  0.12636167  0.40569000  1.0
  O2-  O158  1  0.82508000  0.17519167  0.09431000  1.0
  O2-  O159  1  0.82508000  0.67519167  0.09431000  1.0
  O2-  O160  1  0.30803000  0.57920667  0.58061000  1.0
  O2-  O161  1  0.30803000  0.07920667  0.58061000  1.0
  O2-  O162  1  0.19197000  0.47234667  0.48295000  1.0
  O2-  O163  1  0.19197000  0.97234667  0.48295000  1.0
  O2-  O164  1  0.59431000  0.50412667  0.01705000  1.0
  O2-  O165  1  0.59431000  0.00412667  0.01705000  1.0
  O2-  O166  1  0.90569000  0.61098667  0.91939000  1.0
  O2-  O167  1  0.90569000  0.11098667  0.91939000  1.0
  O2-  O168  1  0.58061000  0.36951167  0.11136000  1.0
  O2-  O169  1  0.58061000  0.86951167  0.11136000  1.0
  O2-  O170  1  0.48295000  0.21382167  0.32508000  1.0
  O2-  O171  1  0.48295000  0.71382167  0.32508000  1.0
  O2-  O172  1  0.01705000  0.51265167  0.38864000  1.0
  O2-  O173  1  0.01705000  0.01265167  0.38864000  1.0
  O2-  O174  1  0.91939000  0.57068167  0.17492000  1.0
  O2-  O175  1  0.91939000  0.07068167  0.17492000  1.0
  O2-  O176  1  0.11136000  0.42519167  0.30803000  1.0
  O2-  O177  1  0.11136000  0.92519167  0.30803000  1.0
  O2-  O178  1  0.32508000  0.37636167  0.19197000  1.0
  O2-  O179  1  0.32508000  0.87636167  0.19197000  1.0
  O2-  O180  1  0.38864000  0.20697167  0.59431000  1.0
  O2-  O181  1  0.38864000  0.70697167  0.59431000  1.0
  O2-  O182  1  0.17492000  0.65814167  0.90569000  1.0
  O2-  O183  1  0.17492000  0.15814167  0.90569000  1.0
