# generated using pymatgen
data_BaSrLi12La4Ta4O24
_symmetry_space_group_name_H-M   'P 1'
_cell_length_a   22.36993848
_cell_length_b   11.18496924
_cell_length_c   11.18496924
_cell_angle_alpha   109.47122063
_cell_angle_beta   109.47122063
_cell_angle_gamma   109.47122063
_symmetry_Int_Tables_number   1
_chemical_formula_structural   BaSrLi12La4Ta4O24
_chemical_formula_sum   'Ba4 Sr4 Li48 La16 Ta16 O96'
_cell_volume   2154.33127967
_cell_formula_units_Z   4
loop_
 _symmetry_equiv_pos_site_id
 _symmetry_equiv_pos_as_xyz
  1  'x, y, z'
loop_
 _atom_type_symbol
 _atom_type_oxidation_number
  Ba2+  2.0
  Sr2+  2.0
  Li+  1.0
  La3+  3.0
  Ta5+  5.0
  O2-  -2.0
loop_
 _atom_site_type_symbol
 _atom_site_label
 _atom_site_symmetry_multiplicity
 _atom_site_fract_x
 _atom_site_fract_y
 _atom_site_fract_z
 _atom_site_occupancy
  Ba2+  Ba0  1  0.37500000  0.12500000  0.87500000  1.0
  Ba2+  Ba0  1  0.87500000  0.12500000  0.87500000  1.0
  Ba2+  Ba1  1  0.43750000  0.12500000  0.25000000  1.0
  Ba2+  Ba1  1  0.93750000  0.12500000  0.25000000  1.0
  Sr2+  Sr2  1  0.37500000  0.62500000  0.37500000  1.0
  Sr2+  Sr2  1  0.87500000  0.62500000  0.37500000  1.0
  Sr2+  Sr3  1  0.12500000  0.87500000  0.12500000  1.0
  Sr2+  Sr3  1  0.62500000  0.87500000  0.12500000  1.0
  Li+  Li4  1  0.37500000  0.37500000  0.12500000  1.0
  Li+  Li4  1  0.87500000  0.37500000  0.12500000  1.0
  Li+  Li5  1  0.12500000  0.12500000  0.37500000  1.0
  Li+  Li5  1  0.62500000  0.12500000  0.37500000  1.0
  Li+  Li6  1  0.31250000  0.87500000  0.25000000  1.0
  Li+  Li6  1  0.81250000  0.87500000  0.25000000  1.0
  Li+  Li7  1  0.43750000  0.62500000  0.75000000  1.0
  Li+  Li7  1  0.93750000  0.62500000  0.75000000  1.0
  Li+  Li8  1  0.37500000  0.87500000  0.62500000  1.0
  Li+  Li8  1  0.87500000  0.87500000  0.62500000  1.0
  Li+  Li9  1  0.06250000  0.37500000  0.25000000  1.0
  Li+  Li9  1  0.56250000  0.37500000  0.25000000  1.0
  Li+  Li10  1  0.05360000  0.30360000  0.05360000  1.0
  Li+  Li10  1  0.55360000  0.30360000  0.05360000  1.0
  Li+  Li11  1  0.19640000  0.94640000  0.69640000  1.0
  Li+  Li11  1  0.69640000  0.94640000  0.69640000  1.0
  Li+  Li12  1  0.12500000  0.19640000  0.80360000  1.0
  Li+  Li12  1  0.62500000  0.19640000  0.80360000  1.0
  Li+  Li13  1  0.12500000  0.55360000  0.44640000  1.0
  Li+  Li13  1  0.62500000  0.55360000  0.44640000  1.0
  Li+  Li14  1  0.40180000  0.75000000  0.69640000  1.0
  Li+  Li14  1  0.90180000  0.75000000  0.69640000  1.0
  Li+  Li15  1  0.22320000  0.75000000  0.05360000  1.0
  Li+  Li15  1  0.72320000  0.75000000  0.05360000  1.0
  Li+  Li16  1  0.02680000  0.60720000  0.80360000  1.0
  Li+  Li16  1  0.52680000  0.60720000  0.80360000  1.0
  Li+  Li17  1  0.02680000  0.94640000  0.25000000  1.0
  Li+  Li17  1  0.52680000  0.94640000  0.25000000  1.0
  Li+  Li18  1  0.34820000  0.30360000  0.25000000  1.0
  Li+  Li18  1  0.84820000  0.30360000  0.25000000  1.0
  Li+  Li19  1  0.22320000  0.19640000  0.39280000  1.0
  Li+  Li19  1  0.72320000  0.19640000  0.39280000  1.0
  Li+  Li20  1  0.40180000  0.55360000  0.10720000  1.0
  Li+  Li20  1  0.90180000  0.55360000  0.10720000  1.0
  Li+  Li21  1  0.30360000  0.05360000  0.30360000  1.0
  Li+  Li21  1  0.80360000  0.05360000  0.30360000  1.0
  Li+  Li22  1  0.37500000  0.80360000  0.19640000  1.0
  Li+  Li22  1  0.87500000  0.80360000  0.19640000  1.0
  Li+  Li23  1  0.09820000  0.25000000  0.30360000  1.0
  Li+  Li23  1  0.59820000  0.25000000  0.30360000  1.0
  Li+  Li24  1  0.15180000  0.10720000  0.55360000  1.0
  Li+  Li24  1  0.65180000  0.10720000  0.55360000  1.0
  Li+  Li25  1  0.15180000  0.69640000  0.75000000  1.0
  Li+  Li25  1  0.65180000  0.69640000  0.75000000  1.0
  Li+  Li26  1  0.27680000  0.80360000  0.60720000  1.0
  Li+  Li26  1  0.77680000  0.80360000  0.60720000  1.0
  Li+  Li27  1  0.09820000  0.44640000  0.89280000  1.0
  Li+  Li27  1  0.59820000  0.44640000  0.89280000  1.0
  La3+  La28  1  0.06250000  0.75000000  0.37500000  1.0
  La3+  La28  1  0.56250000  0.75000000  0.37500000  1.0
  La3+  La29  1  0.18750000  0.25000000  0.12500000  1.0
  La3+  La29  1  0.68750000  0.25000000  0.12500000  1.0
  La3+  La30  1  0.18750000  0.62500000  0.25000000  1.0
  La3+  La30  1  0.68750000  0.62500000  0.25000000  1.0
  La3+  La31  1  0.06250000  0.87500000  0.75000000  1.0
  La3+  La31  1  0.56250000  0.87500000  0.75000000  1.0
  La3+  La32  1  0.12500000  0.37500000  0.62500000  1.0
  La3+  La32  1  0.62500000  0.37500000  0.62500000  1.0
  La3+  La33  1  0.43750000  0.25000000  0.62500000  1.0
  La3+  La33  1  0.93750000  0.25000000  0.62500000  1.0
  La3+  La34  1  0.31250000  0.75000000  0.87500000  1.0
  La3+  La34  1  0.81250000  0.75000000  0.87500000  1.0
  La3+  La35  1  0.31250000  0.37500000  0.75000000  1.0
  La3+  La35  1  0.81250000  0.37500000  0.75000000  1.0
  Ta5+  Ta1  1  0.00000000  0.00000000  0.50000000  1.0
  Ta5+  Ta1  1  0.50000000  0.00000000  0.50000000  1.0
  Ta5+  Ta1  1  0.25000000  0.50000000  0.50000000  1.0
  Ta5+  Ta1  1  0.75000000  0.50000000  0.50000000  1.0
  Ta5+  Ta1  1  0.00000000  0.50000000  0.00000000  1.0
  Ta5+  Ta1  1  0.50000000  0.50000000  0.00000000  1.0
  Ta5+  Ta1  1  0.25000000  0.00000000  0.00000000  1.0
  Ta5+  Ta1  1  0.75000000  0.00000000  0.00000000  1.0
  Ta5+  Ta1  1  0.00000000  0.50000000  0.50000000  1.0
  Ta5+  Ta1  1  0.50000000  0.50000000  0.50000000  1.0
  Ta5+  Ta1  1  0.25000000  0.00000000  0.50000000  1.0
  Ta5+  Ta1  1  0.75000000  0.00000000  0.50000000  1.0
  Ta5+  Ta1  1  0.25000000  0.50000000  0.00000000  1.0
  Ta5+  Ta1  1  0.75000000  0.50000000  0.00000000  1.0
  Ta5+  Ta1  1  0.00000000  0.00000000  0.00000000  1.0
  Ta5+  Ta1  1  0.50000000  0.00000000  0.00000000  1.0
  O2-  O1  1  0.45284500  0.88864000  0.58061000  1.0
  O2-  O1  1  0.95284500  0.88864000  0.58061000  1.0
  O2-  O1  1  0.29715500  0.67492000  0.48295000  1.0
  O2-  O1  1  0.79715500  0.67492000  0.48295000  1.0
  O2-  O1  1  0.09598500  0.61136000  0.01705000  1.0
  O2-  O1  1  0.59598500  0.61136000  0.01705000  1.0
  O2-  O1  1  0.15401500  0.82508000  0.91939000  1.0
  O2-  O1  1  0.65401500  0.82508000  0.91939000  1.0
  O2-  O1  1  0.00852500  0.69197000  0.11136000  1.0
  O2-  O1  1  0.50852500  0.69197000  0.11136000  1.0
  O2-  O1  1  0.45969500  0.80803000  0.32508000  1.0
  O2-  O1  1  0.95969500  0.80803000  0.32508000  1.0
  O2-  O1  1  0.29030500  0.40569000  0.38864000  1.0
  O2-  O1  1  0.79030500  0.40569000  0.38864000  1.0
  O2-  O1  1  0.24147500  0.09431000  0.17492000  1.0
  O2-  O1  1  0.74147500  0.09431000  0.17492000  1.0
  O2-  O1  1  0.16254000  0.41939000  0.30803000  1.0
  O2-  O1  1  0.66254000  0.41939000  0.30803000  1.0
  O2-  O1  1  0.05568000  0.51705000  0.19197000  1.0
  O2-  O1  1  0.55568000  0.51705000  0.19197000  1.0
  O2-  O1  1  0.08746000  0.98295000  0.59431000  1.0
  O2-  O1  1  0.58746000  0.98295000  0.59431000  1.0
  O2-  O1  1  0.19432000  0.08061000  0.90569000  1.0
  O2-  O1  1  0.69432000  0.08061000  0.90569000  1.0
  O2-  O1  1  0.04715500  0.11136000  0.41939000  1.0
  O2-  O1  1  0.54715500  0.11136000  0.41939000  1.0
  O2-  O1  1  0.20284500  0.32508000  0.51705000  1.0
  O2-  O1  1  0.70284500  0.32508000  0.51705000  1.0
  O2-  O1  1  0.40401500  0.38864000  0.98295000  1.0
  O2-  O1  1  0.90401500  0.38864000  0.98295000  1.0
  O2-  O1  1  0.34598500  0.17492000  0.08061000  1.0
  O2-  O1  1  0.84598500  0.17492000  0.08061000  1.0
  O2-  O1  1  0.49147500  0.30803000  0.88864000  1.0
  O2-  O1  1  0.99147500  0.30803000  0.88864000  1.0
  O2-  O1  1  0.04030500  0.19197000  0.67492000  1.0
  O2-  O1  1  0.54030500  0.19197000  0.67492000  1.0
  O2-  O1  1  0.20969500  0.59431000  0.61136000  1.0
  O2-  O1  1  0.70969500  0.59431000  0.61136000  1.0
  O2-  O1  1  0.25852500  0.90569000  0.82508000  1.0
  O2-  O1  1  0.75852500  0.90569000  0.82508000  1.0
  O2-  O1  1  0.33746000  0.58061000  0.69197000  1.0
  O2-  O1  1  0.83746000  0.58061000  0.69197000  1.0
  O2-  O1  1  0.44432000  0.48295000  0.80803000  1.0
  O2-  O1  1  0.94432000  0.48295000  0.80803000  1.0
  O2-  O1  1  0.41254000  0.01705000  0.40569000  1.0
  O2-  O1  1  0.91254000  0.01705000  0.40569000  1.0
  O2-  O1  1  0.30568000  0.91939000  0.09431000  1.0
  O2-  O1  1  0.80568000  0.91939000  0.09431000  1.0
  O2-  O1  1  0.41254000  0.30803000  0.41939000  1.0
  O2-  O1  1  0.91254000  0.30803000  0.41939000  1.0
  O2-  O1  1  0.30568000  0.19197000  0.51705000  1.0
  O2-  O1  1  0.80568000  0.19197000  0.51705000  1.0
  O2-  O1  1  0.33746000  0.59431000  0.98295000  1.0
  O2-  O1  1  0.83746000  0.59431000  0.98295000  1.0
  O2-  O1  1  0.44432000  0.90569000  0.08061000  1.0
  O2-  O1  1  0.94432000  0.90569000  0.08061000  1.0
  O2-  O1  1  0.20284500  0.58061000  0.88864000  1.0
  O2-  O1  1  0.70284500  0.58061000  0.88864000  1.0
  O2-  O1  1  0.04715500  0.48295000  0.67492000  1.0
  O2-  O1  1  0.54715500  0.48295000  0.67492000  1.0
  O2-  O1  1  0.34598500  0.01705000  0.61136000  1.0
  O2-  O1  1  0.84598500  0.01705000  0.61136000  1.0
  O2-  O1  1  0.40401500  0.91939000  0.82508000  1.0
  O2-  O1  1  0.90401500  0.91939000  0.82508000  1.0
  O2-  O1  1  0.25852500  0.11136000  0.69197000  1.0
  O2-  O1  1  0.75852500  0.11136000  0.69197000  1.0
  O2-  O1  1  0.20969500  0.32508000  0.80803000  1.0
  O2-  O1  1  0.70969500  0.32508000  0.80803000  1.0
  O2-  O1  1  0.04030500  0.38864000  0.40569000  1.0
  O2-  O1  1  0.54030500  0.38864000  0.40569000  1.0
  O2-  O1  1  0.49147500  0.17492000  0.09431000  1.0
  O2-  O1  1  0.99147500  0.17492000  0.09431000  1.0
  O2-  O1  1  0.08746000  0.69197000  0.58061000  1.0
  O2-  O1  1  0.58746000  0.69197000  0.58061000  1.0
  O2-  O1  1  0.19432000  0.80803000  0.48295000  1.0
  O2-  O1  1  0.69432000  0.80803000  0.48295000  1.0
  O2-  O1  1  0.16254000  0.40569000  0.01705000  1.0
  O2-  O1  1  0.66254000  0.40569000  0.01705000  1.0
  O2-  O1  1  0.05568000  0.09431000  0.91939000  1.0
  O2-  O1  1  0.55568000  0.09431000  0.91939000  1.0
  O2-  O1  1  0.29715500  0.41939000  0.11136000  1.0
  O2-  O1  1  0.79715500  0.41939000  0.11136000  1.0
  O2-  O1  1  0.45284500  0.51705000  0.32508000  1.0
  O2-  O1  1  0.95284500  0.51705000  0.32508000  1.0
  O2-  O1  1  0.15401500  0.98295000  0.38864000  1.0
  O2-  O1  1  0.65401500  0.98295000  0.38864000  1.0
  O2-  O1  1  0.09598500  0.08061000  0.17492000  1.0
  O2-  O1  1  0.59598500  0.08061000  0.17492000  1.0
  O2-  O1  1  0.24147500  0.88864000  0.30803000  1.0
  O2-  O1  1  0.74147500  0.88864000  0.30803000  1.0
  O2-  O1  1  0.29030500  0.67492000  0.19197000  1.0
  O2-  O1  1  0.79030500  0.67492000  0.19197000  1.0
  O2-  O1  1  0.45969500  0.61136000  0.59431000  1.0
  O2-  O1  1  0.95969500  0.61136000  0.59431000  1.0
  O2-  O1  1  0.00852500  0.82508000  0.90569000  1.0
  O2-  O1  1  0.50852500  0.82508000  0.90569000  1.0
