# generated using pymatgen
data_Li2B4O7
_symmetry_space_group_name_H-M   'P 1'
_cell_length_a   25.34897847
_cell_length_b   8.44965949
_cell_length_c   8.44965949
_cell_angle_alpha   104.97994359
_cell_angle_beta   111.76246812
_cell_angle_gamma   111.76246812
_symmetry_Int_Tables_number   1
_chemical_formula_structural   Li2B4O7
_chemical_formula_sum   'Li24 B48 O84'
_cell_volume   1386.85699172
_cell_formula_units_Z   12
loop_
 _symmetry_equiv_pos_site_id
 _symmetry_equiv_pos_as_xyz
  1  'x, y, z'
loop_
 _atom_type_symbol
 _atom_type_oxidation_number
  Li+  1.0
  B3+  3.0
  O2-  -2.0
loop_
 _atom_site_type_symbol
 _atom_site_label
 _atom_site_symmetry_multiplicity
 _atom_site_fract_x
 _atom_site_fract_y
 _atom_site_fract_z
 _atom_site_occupancy
  Li+  Li1  1  0.06173333  0.23410000  0.74950000  1.0
  Li+  Li1  1  0.39506667  0.23410000  0.74950000  1.0
  Li+  Li1  1  0.72840000  0.23410000  0.74950000  1.0
  Li+  Li1  1  0.16153333  0.73410000  0.54890000  1.0
  Li+  Li1  1  0.49486667  0.73410000  0.54890000  1.0
  Li+  Li1  1  0.82820000  0.73410000  0.54890000  1.0
  Li+  Li1  1  0.32820000  0.79890000  0.48410000  1.0
  Li+  Li1  1  0.66153333  0.79890000  0.48410000  1.0
  Li+  Li1  1  0.99486667  0.79890000  0.48410000  1.0
  Li+  Li1  1  0.22840000  0.99950000  0.98410000  1.0
  Li+  Li1  1  0.56173333  0.99950000  0.98410000  1.0
  Li+  Li1  1  0.89506667  0.99950000  0.98410000  1.0
  Li+  Li1  1  0.27160000  0.56430000  0.04890000  1.0
  Li+  Li1  1  0.60493333  0.56430000  0.04890000  1.0
  Li+  Li1  1  0.93826667  0.56430000  0.04890000  1.0
  Li+  Li1  1  0.17180000  0.06430000  0.24950000  1.0
  Li+  Li1  1  0.50513333  0.06430000  0.24950000  1.0
  Li+  Li1  1  0.83846667  0.06430000  0.24950000  1.0
  Li+  Li1  1  0.00513333  0.49950000  0.81430000  1.0
  Li+  Li1  1  0.33846667  0.49950000  0.81430000  1.0
  Li+  Li1  1  0.67180000  0.49950000  0.81430000  1.0
  Li+  Li1  1  0.10493333  0.29890000  0.31430000  1.0
  Li+  Li1  1  0.43826667  0.29890000  0.31430000  1.0
  Li+  Li1  1  0.77160000  0.29890000  0.31430000  1.0
  B3+  B1  1  0.08193333  0.96320000  0.38120000  1.0
  B3+  B1  1  0.41526667  0.96320000  0.38120000  1.0
  B3+  B1  1  0.74860000  0.96320000  0.38120000  1.0
  B3+  B1  1  0.19400000  0.46320000  0.21740000  1.0
  B3+  B1  1  0.52733333  0.46320000  0.21740000  1.0
  B3+  B1  1  0.86066667  0.46320000  0.21740000  1.0
  B3+  B1  1  0.02733333  0.46740000  0.21320000  1.0
  B3+  B1  1  0.36066667  0.46740000  0.21320000  1.0
  B3+  B1  1  0.69400000  0.46740000  0.21320000  1.0
  B3+  B1  1  0.24860000  0.63120000  0.71320000  1.0
  B3+  B1  1  0.58193333  0.63120000  0.71320000  1.0
  B3+  B1  1  0.91526667  0.63120000  0.71320000  1.0
  B3+  B1  1  0.25140000  0.13540000  0.71740000  1.0
  B3+  B1  1  0.58473333  0.13540000  0.71740000  1.0
  B3+  B1  1  0.91806667  0.13540000  0.71740000  1.0
  B3+  B1  1  0.13933333  0.63540000  0.88120000  1.0
  B3+  B1  1  0.47266667  0.63540000  0.88120000  1.0
  B3+  B1  1  0.80600000  0.63540000  0.88120000  1.0
  B3+  B1  1  0.30600000  0.13120000  0.38540000  1.0
  B3+  B1  1  0.63933333  0.13120000  0.38540000  1.0
  B3+  B1  1  0.97266667  0.13120000  0.38540000  1.0
  B3+  B1  1  0.08473333  0.96740000  0.88540000  1.0
  B3+  B1  1  0.41806667  0.96740000  0.88540000  1.0
  B3+  B1  1  0.75140000  0.96740000  0.88540000  1.0
  B3+  B2  1  0.14706667  0.05510000  0.72130000  1.0
  B3+  B2  1  0.48040000  0.05510000  0.72130000  1.0
  B3+  B2  1  0.81373333  0.05510000  0.72130000  1.0
  B3+  B2  1  0.11126667  0.55510000  0.11390000  1.0
  B3+  B2  1  0.44460000  0.55510000  0.11390000  1.0
  B3+  B2  1  0.77793333  0.55510000  0.11390000  1.0
  B3+  B2  1  0.27793333  0.36390000  0.30510000  1.0
  B3+  B2  1  0.61126667  0.36390000  0.30510000  1.0
  B3+  B2  1  0.94460000  0.36390000  0.30510000  1.0
  B3+  B2  1  0.31373333  0.97130000  0.80510000  1.0
  B3+  B2  1  0.64706667  0.97130000  0.80510000  1.0
  B3+  B2  1  0.98040000  0.97130000  0.80510000  1.0
  B3+  B2  1  0.18626667  0.28010000  0.61390000  1.0
  B3+  B2  1  0.51960000  0.28010000  0.61390000  1.0
  B3+  B2  1  0.85293333  0.28010000  0.61390000  1.0
  B3+  B2  1  0.22206667  0.78010000  0.22130000  1.0
  B3+  B2  1  0.55540000  0.78010000  0.22130000  1.0
  B3+  B2  1  0.88873333  0.78010000  0.22130000  1.0
  B3+  B2  1  0.05540000  0.47130000  0.53010000  1.0
  B3+  B2  1  0.38873333  0.47130000  0.53010000  1.0
  B3+  B2  1  0.72206667  0.47130000  0.53010000  1.0
  B3+  B2  1  0.01960000  0.86390000  0.03010000  1.0
  B3+  B2  1  0.35293333  0.86390000  0.03010000  1.0
  B3+  B2  1  0.68626667  0.86390000  0.03010000  1.0
  O2-  O1  1  0.02703333  0.84750000  0.20300000  1.0
  O2-  O1  1  0.36036667  0.84750000  0.20300000  1.0
  O2-  O1  1  0.69370000  0.84750000  0.20300000  1.0
  O2-  O1  1  0.21483333  0.34750000  0.26640000  1.0
  O2-  O1  1  0.54816667  0.34750000  0.26640000  1.0
  O2-  O1  1  0.88150000  0.34750000  0.26640000  1.0
  O2-  O1  1  0.04816667  0.51640000  0.09750000  1.0
  O2-  O1  1  0.38150000  0.51640000  0.09750000  1.0
  O2-  O1  1  0.71483333  0.51640000  0.09750000  1.0
  O2-  O1  1  0.19370000  0.45300000  0.59750000  1.0
  O2-  O1  1  0.52703333  0.45300000  0.59750000  1.0
  O2-  O1  1  0.86036667  0.45300000  0.59750000  1.0
  O2-  O1  1  0.30630000  0.12190000  0.76640000  1.0
  O2-  O1  1  0.63963333  0.12190000  0.76640000  1.0
  O2-  O1  1  0.97296667  0.12190000  0.76640000  1.0
  O2-  O1  1  0.11850000  0.62190000  0.70300000  1.0
  O2-  O1  1  0.45183333  0.62190000  0.70300000  1.0
  O2-  O1  1  0.78516667  0.62190000  0.70300000  1.0
  O2-  O1  1  0.28516667  0.95300000  0.37190000  1.0
  O2-  O1  1  0.61850000  0.95300000  0.37190000  1.0
  O2-  O1  1  0.95183333  0.95300000  0.37190000  1.0
  O2-  O1  1  0.13963333  0.01640000  0.87190000  1.0
  O2-  O1  1  0.47296667  0.01640000  0.87190000  1.0
  O2-  O1  1  0.80630000  0.01640000  0.87190000  1.0
  O2-  O2  1  0.08510000  0.91620000  0.52670000  1.0
  O2-  O2  1  0.41843333  0.91620000  0.52670000  1.0
  O2-  O2  1  0.75176667  0.91620000  0.52670000  1.0
  O2-  O2  1  0.12983333  0.41620000  0.16090000  1.0
  O2-  O2  1  0.46316667  0.41620000  0.16090000  1.0
  O2-  O2  1  0.79650000  0.41620000  0.16090000  1.0
  O2-  O2  1  0.29650000  0.41090000  0.16620000  1.0
  O2-  O2  1  0.62983333  0.41090000  0.16620000  1.0
  O2-  O2  1  0.96316667  0.41090000  0.16620000  1.0
  O2-  O2  1  0.25176667  0.77670000  0.66620000  1.0
  O2-  O2  1  0.58510000  0.77670000  0.66620000  1.0
  O2-  O2  1  0.91843333  0.77670000  0.66620000  1.0
  O2-  O2  1  0.24823333  0.27140000  0.66090000  1.0
  O2-  O2  1  0.58156667  0.27140000  0.66090000  1.0
  O2-  O2  1  0.91490000  0.27140000  0.66090000  1.0
  O2-  O2  1  0.20350000  0.77140000  0.02670000  1.0
  O2-  O2  1  0.53683333  0.77140000  0.02670000  1.0
  O2-  O2  1  0.87016667  0.77140000  0.02670000  1.0
  O2-  O2  1  0.03683333  0.27670000  0.52140000  1.0
  O2-  O2  1  0.37016667  0.27670000  0.52140000  1.0
  O2-  O2  1  0.70350000  0.27670000  0.52140000  1.0
  O2-  O2  1  0.08156667  0.91090000  0.02140000  1.0
  O2-  O2  1  0.41490000  0.91090000  0.02140000  1.0
  O2-  O2  1  0.74823333  0.91090000  0.02140000  1.0
  O2-  O3  1  0.13353333  0.12570000  0.41270000  1.0
  O2-  O3  1  0.46686667  0.12570000  0.41270000  1.0
  O2-  O3  1  0.80020000  0.12570000  0.41270000  1.0
  O2-  O3  1  0.23766667  0.62570000  0.22510000  1.0
  O2-  O3  1  0.57100000  0.62570000  0.22510000  1.0
  O2-  O3  1  0.90433333  0.62570000  0.22510000  1.0
  O2-  O3  1  0.07100000  0.47510000  0.37570000  1.0
  O2-  O3  1  0.40433333  0.47510000  0.37570000  1.0
  O2-  O3  1  0.73766667  0.47510000  0.37570000  1.0
  O2-  O3  1  0.30020000  0.66270000  0.87570000  1.0
  O2-  O3  1  0.63353333  0.66270000  0.87570000  1.0
  O2-  O3  1  0.96686667  0.66270000  0.87570000  1.0
  O2-  O3  1  0.19980000  0.01210000  0.72510000  1.0
  O2-  O3  1  0.53313333  0.01210000  0.72510000  1.0
  O2-  O3  1  0.86646667  0.01210000  0.72510000  1.0
  O2-  O3  1  0.09566667  0.51210000  0.91270000  1.0
  O2-  O3  1  0.42900000  0.51210000  0.91270000  1.0
  O2-  O3  1  0.76233333  0.51210000  0.91270000  1.0
  O2-  O3  1  0.26233333  0.16270000  0.26210000  1.0
  O2-  O3  1  0.59566667  0.16270000  0.26210000  1.0
  O2-  O3  1  0.92900000  0.16270000  0.26210000  1.0
  O2-  O3  1  0.03313333  0.97510000  0.76210000  1.0
  O2-  O3  1  0.36646667  0.97510000  0.76210000  1.0
  O2-  O3  1  0.69980000  0.97510000  0.76210000  1.0
  O2-  O4  1  0.16666667  0.25000000  0.75000000  1.0
  O2-  O4  1  0.50000000  0.25000000  0.75000000  1.0
  O2-  O4  1  0.83333333  0.25000000  0.75000000  1.0
  O2-  O4  1  0.16666667  0.75000000  0.25000000  1.0
  O2-  O4  1  0.50000000  0.75000000  0.25000000  1.0
  O2-  O4  1  0.83333333  0.75000000  0.25000000  1.0
  O2-  O4  1  0.00000000  0.50000000  0.50000000  1.0
  O2-  O4  1  0.33333333  0.50000000  0.50000000  1.0
  O2-  O4  1  0.66666667  0.50000000  0.50000000  1.0
  O2-  O4  1  0.00000000  0.00000000  0.00000000  1.0
  O2-  O4  1  0.33333333  0.00000000  0.00000000  1.0
  O2-  O4  1  0.66666667  0.00000000  0.00000000  1.0
