# generated using pymatgen
data_Li14Zr(In2Cl15)2
_symmetry_space_group_name_H-M   'P 1'
_cell_length_a   32.05050000
_cell_length_b   12.75908000
_cell_length_c   11.09580000
_cell_angle_alpha   90.00000000
_cell_angle_beta   90.00000000
_cell_angle_gamma   70.29300000
_symmetry_Int_Tables_number   1
_chemical_formula_structural   Li14Zr(In2Cl15)2
_chemical_formula_sum   'Li56 Zr4 In16 Cl120'
_cell_volume   4271.69783977
_cell_formula_units_Z   4
loop_
 _symmetry_equiv_pos_site_id
 _symmetry_equiv_pos_as_xyz
  1  'x, y, z'
loop_
 _atom_type_symbol
 _atom_type_oxidation_number
  Li+  1.0
  Zr4+  4.0
  In3+  3.0
  Cl-  -1.0
loop_
 _atom_site_type_symbol
 _atom_site_label
 _atom_site_symmetry_multiplicity
 _atom_site_fract_x
 _atom_site_fract_y
 _atom_site_fract_z
 _atom_site_occupancy
  Li+  Li0  1  0.30000000  0.75000000  0.75000000  1.0
  Li+  Li1  1  0.30000000  0.25000000  0.75000000  1.0
  Li+  Li2  1  0.50191137  0.74795883  0.75212418  1.0
  Li+  Li3  1  0.50444062  0.25080475  0.74845293  1.0
  Li+  Li4  1  0.00000000  0.75000000  0.25000000  1.0
  Li+  Li5  1  0.00000000  0.25000000  0.25000000  1.0
  Li+  Li6  1  0.20000000  0.75000000  0.25000000  1.0
  Li+  Li7  1  0.20000000  0.25000000  0.25000000  1.0
  Li+  Li8  1  0.60000000  0.75000000  0.25000000  1.0
  Li+  Li9  1  0.60000000  0.25000000  0.25000000  1.0
  Li+  Li10  1  0.80000000  0.75000000  0.25000000  1.0
  Li+  Li11  1  0.80000000  0.25000000  0.25000000  1.0
  Li+  Li12  1  0.00175052  0.75086752  0.56750272  1.0
  Li+  Li13  1  0.00000000  0.25000000  0.56405000  1.0
  Li+  Li14  1  0.20000000  0.75000000  0.56405000  1.0
  Li+  Li15  1  0.20000000  0.25000000  0.56405000  1.0
  Li+  Li16  1  0.40000000  0.75000000  0.56405000  1.0
  Li+  Li17  1  0.39373569  0.25420680  0.56800511  1.0
  Li+  Li18  1  0.80000000  0.75000000  0.56405000  1.0
  Li+  Li19  1  0.80000000  0.25000000  0.56405000  1.0
  Li+  Li20  1  0.00000000  0.75000000  0.93595000  1.0
  Li+  Li21  1  0.00000000  0.25000000  0.93595000  1.0
  Li+  Li22  1  0.09941132  0.75203706  0.43515589  1.0
  Li+  Li23  1  0.10000000  0.25000000  0.43595000  1.0
  Li+  Li24  1  0.30000000  0.75000000  0.43595000  1.0
  Li+  Li25  1  0.30177522  0.24909320  0.43034236  1.0
  Li+  Li26  1  0.50000000  0.75000000  0.43595000  1.0
  Li+  Li27  1  0.50000000  0.25000000  0.43595000  1.0
  Li+  Li28  1  0.90000000  0.75000000  0.43595000  1.0
  Li+  Li29  1  0.89417710  0.24685390  0.43918832  1.0
  Li+  Li30  1  0.00000000  0.00000000  0.43100000  1.0
  Li+  Li31  1  0.00000000  0.50000000  0.43100000  1.0
  Li+  Li32  1  0.20092564  0.00090642  0.43510816  1.0
  Li+  Li33  1  0.20000000  0.50000000  0.43100000  1.0
  Li+  Li34  1  0.40062559  0.00378644  0.42624535  1.0
  Li+  Li35  1  0.40000000  0.50000000  0.43100000  1.0
  Li+  Li36  1  0.80000000  0.00000000  0.43100000  1.0
  Li+  Li37  1  0.80000000  0.50000000  0.43100000  1.0
  Li+  Li38  1  0.00000000  0.00000000  0.06900000  1.0
  Li+  Li39  1  0.00000000  0.50000000  0.06900000  1.0
  Li+  Li40  1  0.20000000  0.00000000  0.06900000  1.0
  Li+  Li41  1  0.19812662  0.49825473  0.06672173  1.0
  Li+  Li42  1  0.60000000  0.00000000  0.06900000  1.0
  Li+  Li43  1  0.60149484  0.49878382  0.06794499  1.0
  Li+  Li44  1  0.80087985  0.00228917  0.06947462  1.0
  Li+  Li45  1  0.80000000  0.50000000  0.06900000  1.0
  Li+  Li46  1  0.10000000  0.00000000  0.93100000  1.0
  Li+  Li47  1  0.10000000  0.50000000  0.93100000  1.0
  Li+  Li48  1  0.30000000  0.00000000  0.93100000  1.0
  Li+  Li49  1  0.29981978  0.50246425  0.93175347  1.0
  Li+  Li50  1  0.49987126  0.00123944  0.92821194  1.0
  Li+  Li51  1  0.50000000  0.50000000  0.93100000  1.0
  Li+  Li52  1  0.70000000  0.00000000  0.93100000  1.0
  Li+  Li53  1  0.70000000  0.50000000  0.93100000  1.0
  Li+  Li54  1  0.90000000  0.00000000  0.56900000  1.0
  Li+  Li55  1  0.90000000  0.50000000  0.56900000  1.0
  Zr4+  Zr56  1  0.40000000  0.00000000  0.06900000  1.0
  Zr4+  Zr57  1  0.40000000  0.50000000  0.06900000  1.0
  Zr4+  Zr58  1  0.00000000  0.00000000  0.75000000  1.0
  Zr4+  Zr59  1  0.99933027  0.50101977  0.75271191  1.0
  In3+  In60  1  0.60168415  0.00117854  0.42676519  1.0
  In3+  In61  1  0.59900376  0.50262372  0.42923212  1.0
  In3+  In62  1  0.50000000  0.00000000  0.56900000  1.0
  In3+  In63  1  0.50000000  0.50000000  0.56900000  1.0
  In3+  In64  1  0.20000000  0.00000000  0.75000000  1.0
  In3+  In65  1  0.20000000  0.50000000  0.75000000  1.0
  In3+  In66  1  0.60052520  0.99508786  0.74616976  1.0
  In3+  In67  1  0.60000000  0.50000000  0.75000000  1.0
  In3+  In68  1  0.80000000  0.00000000  0.75000000  1.0
  In3+  In69  1  0.79835227  0.49939186  0.74899770  1.0
  In3+  In70  1  0.29868708  0.99788934  0.25126848  1.0
  In3+  In71  1  0.30000000  0.50000000  0.25000000  1.0
  In3+  In72  1  0.70000000  0.00000000  0.25000000  1.0
  In3+  In73  1  0.70000000  0.50000000  0.25000000  1.0
  In3+  In74  1  0.90000000  0.00000000  0.25000000  1.0
  In3+  In75  1  0.90000000  0.50000000  0.25000000  1.0
  Cl-  Cl76  1  0.05357904  0.61913198  0.74869420  1.0
  Cl-  Cl77  1  0.04864000  0.11875000  0.75000000  1.0
  Cl-  Cl78  1  0.25213856  0.62502016  0.75229748  1.0
  Cl-  Cl79  1  0.24864000  0.11875000  0.75000000  1.0
  Cl-  Cl80  1  0.44864000  0.61875000  0.75000000  1.0
  Cl-  Cl81  1  0.44710255  0.11998473  0.75286084  1.0
  Cl-  Cl82  1  0.64864000  0.61875000  0.75000000  1.0
  Cl-  Cl83  1  0.64461585  0.12125064  0.74720792  1.0
  Cl-  Cl84  1  0.84864000  0.61875000  0.75000000  1.0
  Cl-  Cl85  1  0.84864000  0.11875000  0.75000000  1.0
  Cl-  Cl86  1  0.15073956  0.87994076  0.75131372  1.0
  Cl-  Cl87  1  0.14832263  0.38301690  0.74848293  1.0
  Cl-  Cl88  1  0.35136000  0.88125000  0.75000000  1.0
  Cl-  Cl89  1  0.35136000  0.38125000  0.75000000  1.0
  Cl-  Cl90  1  0.55136000  0.88125000  0.75000000  1.0
  Cl-  Cl91  1  0.55136000  0.38125000  0.75000000  1.0
  Cl-  Cl92  1  0.74722488  0.88416810  0.75099805  1.0
  Cl-  Cl93  1  0.75280670  0.38023569  0.75358485  1.0
  Cl-  Cl94  1  0.95136000  0.88125000  0.75000000  1.0
  Cl-  Cl95  1  0.95136000  0.38125000  0.75000000  1.0
  Cl-  Cl96  1  0.14290653  0.61721298  0.25052741  1.0
  Cl-  Cl97  1  0.14864000  0.11875000  0.25000000  1.0
  Cl-  Cl98  1  0.34864000  0.61875000  0.25000000  1.0
  Cl-  Cl99  1  0.34864000  0.11875000  0.25000000  1.0
  Cl-  Cl100  1  0.54864000  0.61875000  0.25000000  1.0
  Cl-  Cl101  1  0.54864000  0.11875000  0.25000000  1.0
  Cl-  Cl102  1  0.74864000  0.61875000  0.25000000  1.0
  Cl-  Cl103  1  0.74864000  0.11875000  0.25000000  1.0
  Cl-  Cl104  1  0.94864000  0.61875000  0.25000000  1.0
  Cl-  Cl105  1  0.94864000  0.11875000  0.25000000  1.0
  Cl-  Cl106  1  0.05136000  0.88125000  0.25000000  1.0
  Cl-  Cl107  1  0.05136000  0.38125000  0.25000000  1.0
  Cl-  Cl108  1  0.25126930  0.88086206  0.24806080  1.0
  Cl-  Cl109  1  0.25100082  0.38265706  0.25121926  1.0
  Cl-  Cl110  1  0.45136000  0.88125000  0.25000000  1.0
  Cl-  Cl111  1  0.45136000  0.38125000  0.25000000  1.0
  Cl-  Cl112  1  0.65136000  0.88125000  0.25000000  1.0
  Cl-  Cl113  1  0.64950023  0.38329136  0.25119521  1.0
  Cl-  Cl114  1  0.85136000  0.88125000  0.25000000  1.0
  Cl-  Cl115  1  0.85136000  0.38125000  0.25000000  1.0
  Cl-  Cl116  1  0.04926000  0.88110000  0.58730000  1.0
  Cl-  Cl117  1  0.04926000  0.38110000  0.58730000  1.0
  Cl-  Cl118  1  0.24837805  0.88436820  0.58502016  1.0
  Cl-  Cl119  1  0.24926000  0.38110000  0.58730000  1.0
  Cl-  Cl120  1  0.44926000  0.88110000  0.58730000  1.0
  Cl-  Cl121  1  0.44926000  0.38110000  0.58730000  1.0
  Cl-  Cl122  1  0.64926000  0.88110000  0.58730000  1.0
  Cl-  Cl123  1  0.64926000  0.38110000  0.58730000  1.0
  Cl-  Cl124  1  0.84926000  0.88110000  0.58730000  1.0
  Cl-  Cl125  1  0.84926000  0.38110000  0.58730000  1.0
  Cl-  Cl126  1  0.15074000  0.61890000  0.91270000  1.0
  Cl-  Cl127  1  0.15413020  0.12030035  0.91521816  1.0
  Cl-  Cl128  1  0.35074000  0.61890000  0.91270000  1.0
  Cl-  Cl129  1  0.35074000  0.11890000  0.91270000  1.0
  Cl-  Cl130  1  0.55074000  0.61890000  0.91270000  1.0
  Cl-  Cl131  1  0.55589771  0.12308517  0.91436975  1.0
  Cl-  Cl132  1  0.75074000  0.61890000  0.91270000  1.0
  Cl-  Cl133  1  0.75074000  0.11890000  0.91270000  1.0
  Cl-  Cl134  1  0.95074000  0.61890000  0.91270000  1.0
  Cl-  Cl135  1  0.95074000  0.11890000  0.91270000  1.0
  Cl-  Cl136  1  0.15074000  0.61890000  0.58730000  1.0
  Cl-  Cl137  1  0.15074000  0.11890000  0.58730000  1.0
  Cl-  Cl138  1  0.35074000  0.61890000  0.58730000  1.0
  Cl-  Cl139  1  0.35093353  0.11789333  0.58619079  1.0
  Cl-  Cl140  1  0.55074000  0.61890000  0.58730000  1.0
  Cl-  Cl141  1  0.55074000  0.11890000  0.58730000  1.0
  Cl-  Cl142  1  0.75074000  0.61890000  0.58730000  1.0
  Cl-  Cl143  1  0.74985385  0.11539208  0.58880316  1.0
  Cl-  Cl144  1  0.95301647  0.61525645  0.58838394  1.0
  Cl-  Cl145  1  0.95074000  0.11890000  0.58730000  1.0
  Cl-  Cl146  1  0.04926000  0.88110000  0.91270000  1.0
  Cl-  Cl147  1  0.04926000  0.38110000  0.91270000  1.0
  Cl-  Cl148  1  0.24926000  0.88110000  0.91270000  1.0
  Cl-  Cl149  1  0.24605171  0.37703547  0.91000044  1.0
  Cl-  Cl150  1  0.44926000  0.88110000  0.91270000  1.0
  Cl-  Cl151  1  0.44926000  0.38110000  0.91270000  1.0
  Cl-  Cl152  1  0.64926000  0.88110000  0.91270000  1.0
  Cl-  Cl153  1  0.64926000  0.38110000  0.91270000  1.0
  Cl-  Cl154  1  0.84921297  0.88350459  0.91460453  1.0
  Cl-  Cl155  1  0.84758152  0.37958086  0.91318340  1.0
  Cl-  Cl156  1  0.14926000  0.88110000  0.08730000  1.0
  Cl-  Cl157  1  0.14807503  0.38861078  0.08935683  1.0
  Cl-  Cl158  1  0.34926000  0.88110000  0.08730000  1.0
  Cl-  Cl159  1  0.34926000  0.38110000  0.08730000  1.0
  Cl-  Cl160  1  0.54926000  0.88110000  0.08730000  1.0
  Cl-  Cl161  1  0.54926000  0.38110000  0.08730000  1.0
  Cl-  Cl162  1  0.74926000  0.88110000  0.08730000  1.0
  Cl-  Cl163  1  0.74926000  0.38110000  0.08730000  1.0
  Cl-  Cl164  1  0.94926000  0.88110000  0.08730000  1.0
  Cl-  Cl165  1  0.94926000  0.38110000  0.08730000  1.0
  Cl-  Cl166  1  0.05074000  0.61890000  0.41270000  1.0
  Cl-  Cl167  1  0.05074000  0.11890000  0.41270000  1.0
  Cl-  Cl168  1  0.25074000  0.61890000  0.41270000  1.0
  Cl-  Cl169  1  0.25074000  0.11890000  0.41270000  1.0
  Cl-  Cl170  1  0.45074000  0.61890000  0.41270000  1.0
  Cl-  Cl171  1  0.45133143  0.11920860  0.41517844  1.0
  Cl-  Cl172  1  0.65074000  0.61890000  0.41270000  1.0
  Cl-  Cl173  1  0.65074000  0.11890000  0.41270000  1.0
  Cl-  Cl174  1  0.85074000  0.61890000  0.41270000  1.0
  Cl-  Cl175  1  0.85095376  0.11651209  0.41678611  1.0
  Cl-  Cl176  1  0.05074000  0.61890000  0.08730000  1.0
  Cl-  Cl177  1  0.05074000  0.11890000  0.08730000  1.0
  Cl-  Cl178  1  0.25074000  0.61890000  0.08730000  1.0
  Cl-  Cl179  1  0.25074000  0.11890000  0.08730000  1.0
  Cl-  Cl180  1  0.45074000  0.61890000  0.08730000  1.0
  Cl-  Cl181  1  0.45074000  0.11890000  0.08730000  1.0
  Cl-  Cl182  1  0.65074000  0.61890000  0.08730000  1.0
  Cl-  Cl183  1  0.65197293  0.11613651  0.08827116  1.0
  Cl-  Cl184  1  0.85074000  0.61890000  0.08730000  1.0
  Cl-  Cl185  1  0.85155364  0.12300903  0.08310103  1.0
  Cl-  Cl186  1  0.15186966  0.87289378  0.41332960  1.0
  Cl-  Cl187  1  0.14926000  0.38110000  0.41270000  1.0
  Cl-  Cl188  1  0.34926000  0.88110000  0.41270000  1.0
  Cl-  Cl189  1  0.34926000  0.38110000  0.41270000  1.0
  Cl-  Cl190  1  0.54926000  0.88110000  0.41270000  1.0
  Cl-  Cl191  1  0.55110225  0.37790925  0.41470317  1.0
  Cl-  Cl192  1  0.74926000  0.88110000  0.41270000  1.0
  Cl-  Cl193  1  0.74926000  0.38110000  0.41270000  1.0
  Cl-  Cl194  1  0.94926000  0.88110000  0.41270000  1.0
  Cl-  Cl195  1  0.94998941  0.38181193  0.41754926  1.0
