# generated using pymatgen
data_Li14Zr(In2Cl15)2
_symmetry_space_group_name_H-M   'P 1'
_cell_length_a   11.19694578
_cell_length_b   32.34266217
_cell_length_c   12.87538772
_cell_angle_alpha   70.29300000
_cell_angle_beta   90.00000000
_cell_angle_gamma   90.00000000
_symmetry_Int_Tables_number   1
_chemical_formula_structural   Li14Zr(In2Cl15)2
_chemical_formula_sum   'Li56 Zr4 In16 Cl120'
_cell_volume   4389.58427168
_cell_formula_units_Z   4
loop_
 _symmetry_equiv_pos_site_id
 _symmetry_equiv_pos_as_xyz
  1  'x, y, z'
loop_
 _atom_type_symbol
 _atom_type_oxidation_number
  Li+  1.0
  Zr4+  4.0
  In3+  3.0
  Cl-  -1.0
loop_
 _atom_site_type_symbol
 _atom_site_label
 _atom_site_symmetry_multiplicity
 _atom_site_fract_x
 _atom_site_fract_y
 _atom_site_fract_z
 _atom_site_occupancy
  Li+  Li0  1  0.00000000  0.36666667  0.25000000  1.0
  Li+  Li1  1  0.00000000  0.36666667  0.75000000  1.0
  Li+  Li2  1  0.00000000  0.16666667  0.25000000  1.0
  Li+  Li3  1  0.00000000  0.16666667  0.75000000  1.0
  Li+  Li4  1  0.50000000  0.66666667  0.25000000  1.0
  Li+  Li5  1  0.50000000  0.66666667  0.75000000  1.0
  Li+  Li6  1  0.50000000  0.46666667  0.25000000  1.0
  Li+  Li7  1  0.50000000  0.46666667  0.75000000  1.0
  Li+  Li8  1  0.50000000  0.06666667  0.25000000  1.0
  Li+  Li9  1  0.50000000  0.06666667  0.75000000  1.0
  Li+  Li10  1  0.50000000  0.86666667  0.25000000  1.0
  Li+  Li11  1  0.50000000  0.86666667  0.75000000  1.0
  Li+  Li12  1  0.81405000  0.66666667  0.25000000  1.0
  Li+  Li13  1  0.81405000  0.66666667  0.75000000  1.0
  Li+  Li14  1  0.81405000  0.46666667  0.25000000  1.0
  Li+  Li15  1  0.81405000  0.46666667  0.75000000  1.0
  Li+  Li16  1  0.81405000  0.26666667  0.25000000  1.0
  Li+  Li17  1  0.81405000  0.26666667  0.75000000  1.0
  Li+  Li18  1  0.81405000  0.86666667  0.25000000  1.0
  Li+  Li19  1  0.81405000  0.86666667  0.75000000  1.0
  Li+  Li20  1  0.18595000  0.66666667  0.25000000  1.0
  Li+  Li21  1  0.18595000  0.66666667  0.75000000  1.0
  Li+  Li22  1  0.68595000  0.56666667  0.25000000  1.0
  Li+  Li23  1  0.68595000  0.56666667  0.75000000  1.0
  Li+  Li24  1  0.68595000  0.36666667  0.25000000  1.0
  Li+  Li25  1  0.68595000  0.36666667  0.75000000  1.0
  Li+  Li26  1  0.68595000  0.16666667  0.25000000  1.0
  Li+  Li27  1  0.68595000  0.16666667  0.75000000  1.0
  Li+  Li28  1  0.68595000  0.76666667  0.25000000  1.0
  Li+  Li29  1  0.68595000  0.76666667  0.75000000  1.0
  Li+  Li30  1  0.68100000  0.66666667  0.00000000  1.0
  Li+  Li31  1  0.68100000  0.66666667  0.50000000  1.0
  Li+  Li32  1  0.68100000  0.46666667  0.00000000  1.0
  Li+  Li33  1  0.68100000  0.46666667  0.50000000  1.0
  Li+  Li34  1  0.68100000  0.26666667  0.00000000  1.0
  Li+  Li35  1  0.68100000  0.26666667  0.50000000  1.0
  Li+  Li36  1  0.68100000  0.86666667  0.00000000  1.0
  Li+  Li37  1  0.68100000  0.86666667  0.50000000  1.0
  Li+  Li38  1  0.31900000  0.66666667  0.00000000  1.0
  Li+  Li39  1  0.31900000  0.66666667  0.50000000  1.0
  Li+  Li40  1  0.31900000  0.46666667  0.00000000  1.0
  Li+  Li41  1  0.31900000  0.46666667  0.50000000  1.0
  Li+  Li42  1  0.31900000  0.06666667  0.00000000  1.0
  Li+  Li43  1  0.31900000  0.06666667  0.50000000  1.0
  Li+  Li44  1  0.31900000  0.86666667  0.00000000  1.0
  Li+  Li45  1  0.31900000  0.86666667  0.50000000  1.0
  Li+  Li46  1  0.18100000  0.56666667  0.00000000  1.0
  Li+  Li47  1  0.18100000  0.56666667  0.50000000  1.0
  Li+  Li48  1  0.18100000  0.36666667  0.00000000  1.0
  Li+  Li49  1  0.18100000  0.36666667  0.50000000  1.0
  Li+  Li50  1  0.18100000  0.16666667  0.00000000  1.0
  Li+  Li51  1  0.18100000  0.16666667  0.50000000  1.0
  Li+  Li52  1  0.18100000  0.96666667  0.00000000  1.0
  Li+  Li53  1  0.18100000  0.96666667  0.50000000  1.0
  Li+  Li54  1  0.81900000  0.76666667  0.00000000  1.0
  Li+  Li55  1  0.81900000  0.76666667  0.50000000  1.0
  Zr4+  Zr56  1  0.31900000  0.26666667  0.00000000  1.0
  Zr4+  Zr57  1  0.31900000  0.26666667  0.50000000  1.0
  Zr4+  Zr58  1  0.00000000  0.66666667  0.00000000  1.0
  Zr4+  Zr59  1  0.00000000  0.66666667  0.50000000  1.0
  In3+  In60  1  0.68100000  0.06666667  0.00000000  1.0
  In3+  In61  1  0.68100000  0.06666667  0.50000000  1.0
  In3+  In62  1  0.81900000  0.16666667  0.00000000  1.0
  In3+  In63  1  0.81900000  0.16666667  0.50000000  1.0
  In3+  In64  1  0.00000000  0.46666667  0.00000000  1.0
  In3+  In65  1  0.00000000  0.46666667  0.50000000  1.0
  In3+  In66  1  0.00000000  0.06666667  0.00000000  1.0
  In3+  In67  1  0.00000000  0.06666667  0.50000000  1.0
  In3+  In68  1  0.00000000  0.86666667  0.00000000  1.0
  In3+  In69  1  0.00000000  0.86666667  0.50000000  1.0
  In3+  In70  1  0.50000000  0.36666667  0.00000000  1.0
  In3+  In71  1  0.50000000  0.36666667  0.50000000  1.0
  In3+  In72  1  0.50000000  0.96666667  0.00000000  1.0
  In3+  In73  1  0.50000000  0.96666667  0.50000000  1.0
  In3+  In74  1  0.50000000  0.76666667  0.00000000  1.0
  In3+  In75  1  0.50000000  0.76666667  0.50000000  1.0
  Cl-  Cl76  1  0.00000000  0.61802667  0.38125000  1.0
  Cl-  Cl77  1  0.00000000  0.61802667  0.88125000  1.0
  Cl-  Cl78  1  0.00000000  0.41802667  0.38125000  1.0
  Cl-  Cl79  1  0.00000000  0.41802667  0.88125000  1.0
  Cl-  Cl80  1  0.00000000  0.21802667  0.38125000  1.0
  Cl-  Cl81  1  0.00000000  0.21802667  0.88125000  1.0
  Cl-  Cl82  1  0.00000000  0.01802667  0.38125000  1.0
  Cl-  Cl83  1  0.00000000  0.01802667  0.88125000  1.0
  Cl-  Cl84  1  0.00000000  0.81802667  0.38125000  1.0
  Cl-  Cl85  1  0.00000000  0.81802667  0.88125000  1.0
  Cl-  Cl86  1  0.00000000  0.51530667  0.11875000  1.0
  Cl-  Cl87  1  0.00000000  0.51530667  0.61875000  1.0
  Cl-  Cl88  1  0.00000000  0.31530667  0.11875000  1.0
  Cl-  Cl89  1  0.00000000  0.31530667  0.61875000  1.0
  Cl-  Cl90  1  0.00000000  0.11530667  0.11875000  1.0
  Cl-  Cl91  1  0.00000000  0.11530667  0.61875000  1.0
  Cl-  Cl92  1  0.00000000  0.91530667  0.11875000  1.0
  Cl-  Cl93  1  0.00000000  0.91530667  0.61875000  1.0
  Cl-  Cl94  1  0.00000000  0.71530667  0.11875000  1.0
  Cl-  Cl95  1  0.00000000  0.71530667  0.61875000  1.0
  Cl-  Cl96  1  0.50000000  0.51802667  0.38125000  1.0
  Cl-  Cl97  1  0.50000000  0.51802667  0.88125000  1.0
  Cl-  Cl98  1  0.50000000  0.31802667  0.38125000  1.0
  Cl-  Cl99  1  0.50000000  0.31802667  0.88125000  1.0
  Cl-  Cl100  1  0.50000000  0.11802667  0.38125000  1.0
  Cl-  Cl101  1  0.50000000  0.11802667  0.88125000  1.0
  Cl-  Cl102  1  0.50000000  0.91802667  0.38125000  1.0
  Cl-  Cl103  1  0.50000000  0.91802667  0.88125000  1.0
  Cl-  Cl104  1  0.50000000  0.71802667  0.38125000  1.0
  Cl-  Cl105  1  0.50000000  0.71802667  0.88125000  1.0
  Cl-  Cl106  1  0.50000000  0.61530667  0.11875000  1.0
  Cl-  Cl107  1  0.50000000  0.61530667  0.61875000  1.0
  Cl-  Cl108  1  0.50000000  0.41530667  0.11875000  1.0
  Cl-  Cl109  1  0.50000000  0.41530667  0.61875000  1.0
  Cl-  Cl110  1  0.50000000  0.21530667  0.11875000  1.0
  Cl-  Cl111  1  0.50000000  0.21530667  0.61875000  1.0
  Cl-  Cl112  1  0.50000000  0.01530667  0.11875000  1.0
  Cl-  Cl113  1  0.50000000  0.01530667  0.61875000  1.0
  Cl-  Cl114  1  0.50000000  0.81530667  0.11875000  1.0
  Cl-  Cl115  1  0.50000000  0.81530667  0.61875000  1.0
  Cl-  Cl116  1  0.83730000  0.61740667  0.11890000  1.0
  Cl-  Cl117  1  0.83730000  0.61740667  0.61890000  1.0
  Cl-  Cl118  1  0.83730000  0.41740667  0.11890000  1.0
  Cl-  Cl119  1  0.83730000  0.41740667  0.61890000  1.0
  Cl-  Cl120  1  0.83730000  0.21740667  0.11890000  1.0
  Cl-  Cl121  1  0.83730000  0.21740667  0.61890000  1.0
  Cl-  Cl122  1  0.83730000  0.01740667  0.11890000  1.0
  Cl-  Cl123  1  0.83730000  0.01740667  0.61890000  1.0
  Cl-  Cl124  1  0.83730000  0.81740667  0.11890000  1.0
  Cl-  Cl125  1  0.83730000  0.81740667  0.61890000  1.0
  Cl-  Cl126  1  0.16270000  0.51592667  0.38110000  1.0
  Cl-  Cl127  1  0.16270000  0.51592667  0.88110000  1.0
  Cl-  Cl128  1  0.16270000  0.31592667  0.38110000  1.0
  Cl-  Cl129  1  0.16270000  0.31592667  0.88110000  1.0
  Cl-  Cl130  1  0.16270000  0.11592667  0.38110000  1.0
  Cl-  Cl131  1  0.16270000  0.11592667  0.88110000  1.0
  Cl-  Cl132  1  0.16270000  0.91592667  0.38110000  1.0
  Cl-  Cl133  1  0.16270000  0.91592667  0.88110000  1.0
  Cl-  Cl134  1  0.16270000  0.71592667  0.38110000  1.0
  Cl-  Cl135  1  0.16270000  0.71592667  0.88110000  1.0
  Cl-  Cl136  1  0.83730000  0.51592667  0.38110000  1.0
  Cl-  Cl137  1  0.83730000  0.51592667  0.88110000  1.0
  Cl-  Cl138  1  0.83730000  0.31592667  0.38110000  1.0
  Cl-  Cl139  1  0.83730000  0.31592667  0.88110000  1.0
  Cl-  Cl140  1  0.83730000  0.11592667  0.38110000  1.0
  Cl-  Cl141  1  0.83730000  0.11592667  0.88110000  1.0
  Cl-  Cl142  1  0.83730000  0.91592667  0.38110000  1.0
  Cl-  Cl143  1  0.83730000  0.91592667  0.88110000  1.0
  Cl-  Cl144  1  0.83730000  0.71592667  0.38110000  1.0
  Cl-  Cl145  1  0.83730000  0.71592667  0.88110000  1.0
  Cl-  Cl146  1  0.16270000  0.61740667  0.11890000  1.0
  Cl-  Cl147  1  0.16270000  0.61740667  0.61890000  1.0
  Cl-  Cl148  1  0.16270000  0.41740667  0.11890000  1.0
  Cl-  Cl149  1  0.16270000  0.41740667  0.61890000  1.0
  Cl-  Cl150  1  0.16270000  0.21740667  0.11890000  1.0
  Cl-  Cl151  1  0.16270000  0.21740667  0.61890000  1.0
  Cl-  Cl152  1  0.16270000  0.01740667  0.11890000  1.0
  Cl-  Cl153  1  0.16270000  0.01740667  0.61890000  1.0
  Cl-  Cl154  1  0.16270000  0.81740667  0.11890000  1.0
  Cl-  Cl155  1  0.16270000  0.81740667  0.61890000  1.0
  Cl-  Cl156  1  0.33730000  0.51740667  0.11890000  1.0
  Cl-  Cl157  1  0.33730000  0.51740667  0.61890000  1.0
  Cl-  Cl158  1  0.33730000  0.31740667  0.11890000  1.0
  Cl-  Cl159  1  0.33730000  0.31740667  0.61890000  1.0
  Cl-  Cl160  1  0.33730000  0.11740667  0.11890000  1.0
  Cl-  Cl161  1  0.33730000  0.11740667  0.61890000  1.0
  Cl-  Cl162  1  0.33730000  0.91740667  0.11890000  1.0
  Cl-  Cl163  1  0.33730000  0.91740667  0.61890000  1.0
  Cl-  Cl164  1  0.33730000  0.71740667  0.11890000  1.0
  Cl-  Cl165  1  0.33730000  0.71740667  0.61890000  1.0
  Cl-  Cl166  1  0.66270000  0.61592667  0.38110000  1.0
  Cl-  Cl167  1  0.66270000  0.61592667  0.88110000  1.0
  Cl-  Cl168  1  0.66270000  0.41592667  0.38110000  1.0
  Cl-  Cl169  1  0.66270000  0.41592667  0.88110000  1.0
  Cl-  Cl170  1  0.66270000  0.21592667  0.38110000  1.0
  Cl-  Cl171  1  0.66270000  0.21592667  0.88110000  1.0
  Cl-  Cl172  1  0.66270000  0.01592667  0.38110000  1.0
  Cl-  Cl173  1  0.66270000  0.01592667  0.88110000  1.0
  Cl-  Cl174  1  0.66270000  0.81592667  0.38110000  1.0
  Cl-  Cl175  1  0.66270000  0.81592667  0.88110000  1.0
  Cl-  Cl176  1  0.33730000  0.61592667  0.38110000  1.0
  Cl-  Cl177  1  0.33730000  0.61592667  0.88110000  1.0
  Cl-  Cl178  1  0.33730000  0.41592667  0.38110000  1.0
  Cl-  Cl179  1  0.33730000  0.41592667  0.88110000  1.0
  Cl-  Cl180  1  0.33730000  0.21592667  0.38110000  1.0
  Cl-  Cl181  1  0.33730000  0.21592667  0.88110000  1.0
  Cl-  Cl182  1  0.33730000  0.01592667  0.38110000  1.0
  Cl-  Cl183  1  0.33730000  0.01592667  0.88110000  1.0
  Cl-  Cl184  1  0.33730000  0.81592667  0.38110000  1.0
  Cl-  Cl185  1  0.33730000  0.81592667  0.88110000  1.0
  Cl-  Cl186  1  0.66270000  0.51740667  0.11890000  1.0
  Cl-  Cl187  1  0.66270000  0.51740667  0.61890000  1.0
  Cl-  Cl188  1  0.66270000  0.31740667  0.11890000  1.0
  Cl-  Cl189  1  0.66270000  0.31740667  0.61890000  1.0
  Cl-  Cl190  1  0.66270000  0.11740667  0.11890000  1.0
  Cl-  Cl191  1  0.66270000  0.11740667  0.61890000  1.0
  Cl-  Cl192  1  0.66270000  0.91740667  0.11890000  1.0
  Cl-  Cl193  1  0.66270000  0.91740667  0.61890000  1.0
  Cl-  Cl194  1  0.66270000  0.71740667  0.11890000  1.0
  Cl-  Cl195  1  0.66270000  0.71740667  0.61890000  1.0
