# generated using pymatgen
data_Li14Zr(In2Cl15)2
_symmetry_space_group_name_H-M   'P 1'
_cell_length_a   32.05050000
_cell_length_b   11.09580000
_cell_length_c   12.75908000
_cell_angle_alpha   90.00000000
_cell_angle_beta   109.70700000
_cell_angle_gamma   90.00000000
_symmetry_Int_Tables_number   1
_chemical_formula_structural   Li14Zr(In2Cl15)2
_chemical_formula_sum   'Li56 Zr4 In16 Cl120'
_cell_volume   4271.69783977
_cell_formula_units_Z   4
loop_
 _symmetry_equiv_pos_site_id
 _symmetry_equiv_pos_as_xyz
  1  'x, y, z'
loop_
 _atom_type_symbol
 _atom_type_oxidation_number
  Li+  1.0
  Zr4+  4.0
  In3+  3.0
  Cl-  -1.0
loop_
 _atom_site_type_symbol
 _atom_site_label
 _atom_site_symmetry_multiplicity
 _atom_site_fract_x
 _atom_site_fract_y
 _atom_site_fract_z
 _atom_site_occupancy
  Li+  Li0  1  0.30000000  0.00000000  0.25000000  1.0
  Li+  Li0  1  0.30000000  0.00000000  0.75000000  1.0
  Li+  Li1  1  0.50000000  0.00000000  0.25000000  1.0
  Li+  Li1  1  0.50000000  0.00000000  0.75000000  1.0
  Li+  Li2  1  0.00000000  0.50000000  0.25000000  1.0
  Li+  Li2  1  0.00000000  0.50000000  0.75000000  1.0
  Li+  Li3  1  0.20000000  0.50000000  0.25000000  1.0
  Li+  Li3  1  0.20000000  0.50000000  0.75000000  1.0
  Li+  Li4  1  0.60000000  0.50000000  0.25000000  1.0
  Li+  Li4  1  0.60000000  0.50000000  0.75000000  1.0
  Li+  Li5  1  0.80000000  0.50000000  0.25000000  1.0
  Li+  Li5  1  0.80000000  0.50000000  0.75000000  1.0
  Li+  Li6  1  0.00000000  0.18595000  0.25000000  1.0
  Li+  Li6  1  0.00000000  0.18595000  0.75000000  1.0
  Li+  Li7  1  0.20000000  0.18595000  0.25000000  1.0
  Li+  Li7  1  0.20000000  0.18595000  0.75000000  1.0
  Li+  Li8  1  0.40000000  0.18595000  0.25000000  1.0
  Li+  Li8  1  0.40000000  0.18595000  0.75000000  1.0
  Li+  Li9  1  0.80000000  0.18595000  0.25000000  1.0
  Li+  Li9  1  0.80000000  0.18595000  0.75000000  1.0
  Li+  Li10  1  0.00000000  0.81405000  0.25000000  1.0
  Li+  Li10  1  0.00000000  0.81405000  0.75000000  1.0
  Li+  Li11  1  0.10000000  0.31405000  0.25000000  1.0
  Li+  Li11  1  0.10000000  0.31405000  0.75000000  1.0
  Li+  Li12  1  0.30000000  0.31405000  0.25000000  1.0
  Li+  Li12  1  0.30000000  0.31405000  0.75000000  1.0
  Li+  Li13  1  0.50000000  0.31405000  0.25000000  1.0
  Li+  Li13  1  0.50000000  0.31405000  0.75000000  1.0
  Li+  Li14  1  0.90000000  0.31405000  0.25000000  1.0
  Li+  Li14  1  0.90000000  0.31405000  0.75000000  1.0
  Li+  Li15  1  0.00000000  0.31900000  0.00000000  1.0
  Li+  Li15  1  0.00000000  0.31900000  0.50000000  1.0
  Li+  Li16  1  0.20000000  0.31900000  0.00000000  1.0
  Li+  Li16  1  0.20000000  0.31900000  0.50000000  1.0
  Li+  Li17  1  0.40000000  0.31900000  0.00000000  1.0
  Li+  Li17  1  0.40000000  0.31900000  0.50000000  1.0
  Li+  Li18  1  0.80000000  0.31900000  1.00000000  1.0
  Li+  Li18  1  0.80000000  0.31900000  0.50000000  1.0
  Li+  Li19  1  0.00000000  0.68100000  0.00000000  1.0
  Li+  Li19  1  0.00000000  0.68100000  0.50000000  1.0
  Li+  Li20  1  0.20000000  0.68100000  0.00000000  1.0
  Li+  Li20  1  0.20000000  0.68100000  0.50000000  1.0
  Li+  Li21  1  0.60000000  0.68100000  0.00000000  1.0
  Li+  Li21  1  0.60000000  0.68100000  0.50000000  1.0
  Li+  Li22  1  0.80000000  0.68100000  1.00000000  1.0
  Li+  Li22  1  0.80000000  0.68100000  0.50000000  1.0
  Li+  Li23  1  0.10000000  0.81900000  0.00000000  1.0
  Li+  Li23  1  0.10000000  0.81900000  0.50000000  1.0
  Li+  Li24  1  0.30000000  0.81900000  0.00000000  1.0
  Li+  Li24  1  0.30000000  0.81900000  0.50000000  1.0
  Li+  Li25  1  0.50000000  0.81900000  0.00000000  1.0
  Li+  Li25  1  0.50000000  0.81900000  0.50000000  1.0
  Li+  Li26  1  0.70000000  0.81900000  0.00000000  1.0
  Li+  Li26  1  0.70000000  0.81900000  0.50000000  1.0
  Li+  Li27  1  0.90000000  0.18100000  0.00000000  1.0
  Li+  Li27  1  0.90000000  0.18100000  0.50000000  1.0
  Zr4+  Zr28  1  0.40000000  0.68100000  0.00000000  1.0
  Zr4+  Zr28  1  0.40000000  0.68100000  0.50000000  1.0
  Zr4+  Zr29  1  0.00000000  0.00000000  0.00000000  1.0
  Zr4+  Zr29  1  0.00000000  0.00000000  0.50000000  1.0
  In3+  In30  1  0.60000000  0.31900000  0.00000000  1.0
  In3+  In30  1  0.60000000  0.31900000  0.50000000  1.0
  In3+  In31  1  0.50000000  0.18100000  0.00000000  1.0
  In3+  In31  1  0.50000000  0.18100000  0.50000000  1.0
  In3+  In32  1  0.20000000  0.00000000  0.00000000  1.0
  In3+  In32  1  0.20000000  0.00000000  0.50000000  1.0
  In3+  In33  1  0.60000000  0.00000000  0.00000000  1.0
  In3+  In33  1  0.60000000  0.00000000  0.50000000  1.0
  In3+  In34  1  0.80000000  0.00000000  1.00000000  1.0
  In3+  In34  1  0.80000000  0.00000000  0.50000000  1.0
  In3+  In35  1  0.30000000  0.50000000  0.00000000  1.0
  In3+  In35  1  0.30000000  0.50000000  0.50000000  1.0
  In3+  In36  1  0.70000000  0.50000000  0.00000000  1.0
  In3+  In36  1  0.70000000  0.50000000  0.50000000  1.0
  In3+  In37  1  0.90000000  0.50000000  0.00000000  1.0
  In3+  In37  1  0.90000000  0.50000000  0.50000000  1.0
  Cl-  Cl1  1  0.04864000  0.00000000  0.38125000  1.0
  Cl-  Cl1  1  0.04864000  0.00000000  0.88125000  1.0
  Cl-  Cl1  1  0.24864000  0.00000000  0.38125000  1.0
  Cl-  Cl1  1  0.24864000  0.00000000  0.88125000  1.0
  Cl-  Cl1  1  0.44864000  0.00000000  0.38125000  1.0
  Cl-  Cl1  1  0.44864000  0.00000000  0.88125000  1.0
  Cl-  Cl1  1  0.64864000  0.00000000  0.38125000  1.0
  Cl-  Cl1  1  0.64864000  0.00000000  0.88125000  1.0
  Cl-  Cl1  1  0.84864000  0.00000000  0.38125000  1.0
  Cl-  Cl1  1  0.84864000  0.00000000  0.88125000  1.0
  Cl-  Cl1  1  0.15136000  0.00000000  0.11875000  1.0
  Cl-  Cl1  1  0.15136000  0.00000000  0.61875000  1.0
  Cl-  Cl1  1  0.35136000  0.00000000  0.11875000  1.0
  Cl-  Cl1  1  0.35136000  0.00000000  0.61875000  1.0
  Cl-  Cl1  1  0.55136000  0.00000000  0.11875000  1.0
  Cl-  Cl1  1  0.55136000  0.00000000  0.61875000  1.0
  Cl-  Cl1  1  0.75136000  0.00000000  0.11875000  1.0
  Cl-  Cl1  1  0.75136000  0.00000000  0.61875000  1.0
  Cl-  Cl1  1  0.95136000  0.00000000  0.11875000  1.0
  Cl-  Cl1  1  0.95136000  0.00000000  0.61875000  1.0
  Cl-  Cl1  1  0.14864000  0.50000000  0.38125000  1.0
  Cl-  Cl1  1  0.14864000  0.50000000  0.88125000  1.0
  Cl-  Cl1  1  0.34864000  0.50000000  0.38125000  1.0
  Cl-  Cl1  1  0.34864000  0.50000000  0.88125000  1.0
  Cl-  Cl1  1  0.54864000  0.50000000  0.38125000  1.0
  Cl-  Cl1  1  0.54864000  0.50000000  0.88125000  1.0
  Cl-  Cl1  1  0.74864000  0.50000000  0.38125000  1.0
  Cl-  Cl1  1  0.74864000  0.50000000  0.88125000  1.0
  Cl-  Cl1  1  0.94864000  0.50000000  0.38125000  1.0
  Cl-  Cl1  1  0.94864000  0.50000000  0.88125000  1.0
  Cl-  Cl1  1  0.05136000  0.50000000  0.11875000  1.0
  Cl-  Cl1  1  0.05136000  0.50000000  0.61875000  1.0
  Cl-  Cl1  1  0.25136000  0.50000000  0.11875000  1.0
  Cl-  Cl1  1  0.25136000  0.50000000  0.61875000  1.0
  Cl-  Cl1  1  0.45136000  0.50000000  0.11875000  1.0
  Cl-  Cl1  1  0.45136000  0.50000000  0.61875000  1.0
  Cl-  Cl1  1  0.65136000  0.50000000  0.11875000  1.0
  Cl-  Cl1  1  0.65136000  0.50000000  0.61875000  1.0
  Cl-  Cl1  1  0.85136000  0.50000000  0.11875000  1.0
  Cl-  Cl1  1  0.85136000  0.50000000  0.61875000  1.0
  Cl-  Cl2  1  0.04926000  0.16270000  0.11890000  1.0
  Cl-  Cl2  1  0.04926000  0.16270000  0.61890000  1.0
  Cl-  Cl2  1  0.24926000  0.16270000  0.11890000  1.0
  Cl-  Cl2  1  0.24926000  0.16270000  0.61890000  1.0
  Cl-  Cl2  1  0.44926000  0.16270000  0.11890000  1.0
  Cl-  Cl2  1  0.44926000  0.16270000  0.61890000  1.0
  Cl-  Cl2  1  0.64926000  0.16270000  0.11890000  1.0
  Cl-  Cl2  1  0.64926000  0.16270000  0.61890000  1.0
  Cl-  Cl2  1  0.84926000  0.16270000  0.11890000  1.0
  Cl-  Cl2  1  0.84926000  0.16270000  0.61890000  1.0
  Cl-  Cl2  1  0.15074000  0.83730000  0.38110000  1.0
  Cl-  Cl2  1  0.15074000  0.83730000  0.88110000  1.0
  Cl-  Cl2  1  0.35074000  0.83730000  0.38110000  1.0
  Cl-  Cl2  1  0.35074000  0.83730000  0.88110000  1.0
  Cl-  Cl2  1  0.55074000  0.83730000  0.38110000  1.0
  Cl-  Cl2  1  0.55074000  0.83730000  0.88110000  1.0
  Cl-  Cl2  1  0.75074000  0.83730000  0.38110000  1.0
  Cl-  Cl2  1  0.75074000  0.83730000  0.88110000  1.0
  Cl-  Cl2  1  0.95074000  0.83730000  0.38110000  1.0
  Cl-  Cl2  1  0.95074000  0.83730000  0.88110000  1.0
  Cl-  Cl2  1  0.15074000  0.16270000  0.38110000  1.0
  Cl-  Cl2  1  0.15074000  0.16270000  0.88110000  1.0
  Cl-  Cl2  1  0.35074000  0.16270000  0.38110000  1.0
  Cl-  Cl2  1  0.35074000  0.16270000  0.88110000  1.0
  Cl-  Cl2  1  0.55074000  0.16270000  0.38110000  1.0
  Cl-  Cl2  1  0.55074000  0.16270000  0.88110000  1.0
  Cl-  Cl2  1  0.75074000  0.16270000  0.38110000  1.0
  Cl-  Cl2  1  0.75074000  0.16270000  0.88110000  1.0
  Cl-  Cl2  1  0.95074000  0.16270000  0.38110000  1.0
  Cl-  Cl2  1  0.95074000  0.16270000  0.88110000  1.0
  Cl-  Cl2  1  0.04926000  0.83730000  0.11890000  1.0
  Cl-  Cl2  1  0.04926000  0.83730000  0.61890000  1.0
  Cl-  Cl2  1  0.24926000  0.83730000  0.11890000  1.0
  Cl-  Cl2  1  0.24926000  0.83730000  0.61890000  1.0
  Cl-  Cl2  1  0.44926000  0.83730000  0.11890000  1.0
  Cl-  Cl2  1  0.44926000  0.83730000  0.61890000  1.0
  Cl-  Cl2  1  0.64926000  0.83730000  0.11890000  1.0
  Cl-  Cl2  1  0.64926000  0.83730000  0.61890000  1.0
  Cl-  Cl2  1  0.84926000  0.83730000  0.11890000  1.0
  Cl-  Cl2  1  0.84926000  0.83730000  0.61890000  1.0
  Cl-  Cl2  1  0.14926000  0.66270000  0.11890000  1.0
  Cl-  Cl2  1  0.14926000  0.66270000  0.61890000  1.0
  Cl-  Cl2  1  0.34926000  0.66270000  0.11890000  1.0
  Cl-  Cl2  1  0.34926000  0.66270000  0.61890000  1.0
  Cl-  Cl2  1  0.54926000  0.66270000  0.11890000  1.0
  Cl-  Cl2  1  0.54926000  0.66270000  0.61890000  1.0
  Cl-  Cl2  1  0.74926000  0.66270000  0.11890000  1.0
  Cl-  Cl2  1  0.74926000  0.66270000  0.61890000  1.0
  Cl-  Cl2  1  0.94926000  0.66270000  0.11890000  1.0
  Cl-  Cl2  1  0.94926000  0.66270000  0.61890000  1.0
  Cl-  Cl2  1  0.05074000  0.33730000  0.38110000  1.0
  Cl-  Cl2  1  0.05074000  0.33730000  0.88110000  1.0
  Cl-  Cl2  1  0.25074000  0.33730000  0.38110000  1.0
  Cl-  Cl2  1  0.25074000  0.33730000  0.88110000  1.0
  Cl-  Cl2  1  0.45074000  0.33730000  0.38110000  1.0
  Cl-  Cl2  1  0.45074000  0.33730000  0.88110000  1.0
  Cl-  Cl2  1  0.65074000  0.33730000  0.38110000  1.0
  Cl-  Cl2  1  0.65074000  0.33730000  0.88110000  1.0
  Cl-  Cl2  1  0.85074000  0.33730000  0.38110000  1.0
  Cl-  Cl2  1  0.85074000  0.33730000  0.88110000  1.0
  Cl-  Cl2  1  0.05074000  0.66270000  0.38110000  1.0
  Cl-  Cl2  1  0.05074000  0.66270000  0.88110000  1.0
  Cl-  Cl2  1  0.25074000  0.66270000  0.38110000  1.0
  Cl-  Cl2  1  0.25074000  0.66270000  0.88110000  1.0
  Cl-  Cl2  1  0.45074000  0.66270000  0.38110000  1.0
  Cl-  Cl2  1  0.45074000  0.66270000  0.88110000  1.0
  Cl-  Cl2  1  0.65074000  0.66270000  0.38110000  1.0
  Cl-  Cl2  1  0.65074000  0.66270000  0.88110000  1.0
  Cl-  Cl2  1  0.85074000  0.66270000  0.38110000  1.0
  Cl-  Cl2  1  0.85074000  0.66270000  0.88110000  1.0
  Cl-  Cl2  1  0.14926000  0.33730000  0.11890000  1.0
  Cl-  Cl2  1  0.14926000  0.33730000  0.61890000  1.0
  Cl-  Cl2  1  0.34926000  0.33730000  0.11890000  1.0
  Cl-  Cl2  1  0.34926000  0.33730000  0.61890000  1.0
  Cl-  Cl2  1  0.54926000  0.33730000  0.11890000  1.0
  Cl-  Cl2  1  0.54926000  0.33730000  0.61890000  1.0
  Cl-  Cl2  1  0.74926000  0.33730000  0.11890000  1.0
  Cl-  Cl2  1  0.74926000  0.33730000  0.61890000  1.0
  Cl-  Cl2  1  0.94926000  0.33730000  0.11890000  1.0
  Cl-  Cl2  1  0.94926000  0.33730000  0.61890000  1.0
