# generated using pymatgen
data_Li6PS5Cl
_symmetry_space_group_name_H-M   'P 1'
_cell_length_a   13.94612562
_cell_length_b   13.94612562
_cell_length_c   13.94612562
_cell_angle_alpha   60.00000000
_cell_angle_beta   120.00000000
_cell_angle_gamma   120.00000000
_symmetry_Int_Tables_number   1
_chemical_formula_structural   Li6PS5Cl
_chemical_formula_sum   'Li48 P8 S40 Cl8'
_cell_volume   1917.98727095
_cell_formula_units_Z   8
loop_
 _symmetry_equiv_pos_site_id
 _symmetry_equiv_pos_as_xyz
  1  'x, y, z'
loop_
 _atom_type_symbol
 _atom_type_oxidation_number
  Li+  1.0
  P5+  5.0
  S2-  -2.0
  Cl-  -1.0
loop_
 _atom_site_type_symbol
 _atom_site_label
 _atom_site_symmetry_multiplicity
 _atom_site_fract_x
 _atom_site_fract_y
 _atom_site_fract_z
 _atom_site_occupancy
  Li+  Li0  1  0.00941529  0.98742346  0.58029489  1.0
  Li+  Li1  1  0.01063724  0.49168350  0.57893529  1.0
  Li+  Li2  1  0.00915000  0.99095000  0.07935000  1.0
  Li+  Li3  1  0.00915000  0.49095000  0.07935000  1.0
  Li+  Li4  1  0.50915000  0.49095000  0.57935000  1.0
  Li+  Li5  1  0.50915000  0.99095000  0.07935000  1.0
  Li+  Li6  1  0.00915000  0.18885000  0.24095000  1.0
  Li+  Li7  1  0.50841372  0.69029860  0.24183811  1.0
  Li+  Li8  1  0.50915000  0.18885000  0.24095000  1.0
  Li+  Li9  1  0.00915000  0.82935000  0.93885000  1.0
  Li+  Li10  1  0.50915000  0.82935000  0.43885000  1.0
  Li+  Li11  1  0.50915000  0.32935000  0.93885000  1.0
  Li+  Li12  1  0.01010235  0.19083716  0.57628862  1.0
  Li+  Li13  1  0.50915000  0.68885000  0.57935000  1.0
  Li+  Li14  1  0.50813416  0.18313809  0.58087213  1.0
  Li+  Li15  1  0.00915000  0.82935000  0.74095000  1.0
  Li+  Li16  1  0.00915000  0.82935000  0.24095000  1.0
  Li+  Li17  1  0.00915000  0.32935000  0.24095000  1.0
  Li+  Li18  1  0.50915000  0.82935000  0.74095000  1.0
  Li+  Li19  1  0.50915000  0.82935000  0.24095000  1.0
  Li+  Li20  1  0.01142468  0.49203522  0.43189176  1.0
  Li+  Li21  1  0.00776028  0.49147416  0.93698023  1.0
  Li+  Li22  1  0.50695694  0.99550749  0.44142043  1.0
  Li+  Li23  1  0.50915000  0.49095000  0.93885000  1.0
  Li+  Li24  1  0.17065000  0.68885000  0.74085000  1.0
  Li+  Li25  1  0.67065000  0.68885000  0.74085000  1.0
  Li+  Li26  1  0.67065000  0.68885000  0.24085000  1.0
  Li+  Li27  1  0.31115000  0.99095000  0.74085000  1.0
  Li+  Li28  1  0.30890989  0.49029210  0.24269648  1.0
  Li+  Li29  1  0.80882616  0.98931803  0.74265795  1.0
  Li+  Li30  1  0.81115000  0.99095000  0.24085000  1.0
  Li+  Li31  1  0.81265840  0.48798125  0.24119316  1.0
  Li+  Li32  1  0.17065000  0.49095000  0.74085000  1.0
  Li+  Li33  1  0.17065000  0.99095000  0.24085000  1.0
  Li+  Li34  1  0.66894123  0.99305845  0.74266201  1.0
  Li+  Li35  1  0.67356481  0.49161777  0.73846369  1.0
  Li+  Li36  1  0.31252600  0.33196412  0.74358436  1.0
  Li+  Li37  1  0.31115000  0.99085000  0.57935000  1.0
  Li+  Li38  1  0.31115000  0.49085000  0.57935000  1.0
  Li+  Li39  1  0.31115000  0.49085000  0.07935000  1.0
  Li+  Li40  1  0.81115000  0.49085000  0.57935000  1.0
  Li+  Li41  1  0.81115000  0.99085000  0.07935000  1.0
  Li+  Li42  1  0.81115000  0.49085000  0.07935000  1.0
  Li+  Li43  1  0.17065000  0.99085000  0.43885000  1.0
  Li+  Li44  1  0.17065000  0.99085000  0.93885000  1.0
  Li+  Li45  1  0.17091896  0.49069570  0.94092340  1.0
  Li+  Li46  1  0.67455802  0.48683978  0.43676027  1.0
  Li+  Li47  1  0.67065000  0.99085000  0.93885000  1.0
  P5+  P48  1  0.25000000  0.75000000  0.50000000  1.0
  P5+  P49  1  0.25000000  0.25000000  0.50000000  1.0
  P5+  P50  1  0.24785219  0.75053517  0.00034767  1.0
  P5+  P51  1  0.25000000  0.25000000  0.00000000  1.0
  P5+  P52  1  0.75000000  0.75000000  0.50000000  1.0
  P5+  P53  1  0.75000000  0.25000000  0.50000000  1.0
  P5+  P54  1  0.75000000  0.75000000  0.00000000  1.0
  P5+  P55  1  0.75000000  0.25000000  0.00000000  1.0
  S2-  S56  1  0.30930000  0.92790000  0.44070000  1.0
  S2-  S57  1  0.30930000  0.42790000  0.44070000  1.0
  S2-  S58  1  0.31003979  0.92779339  0.94246653  1.0
  S2-  S59  1  0.30791961  0.42853618  0.94110608  1.0
  S2-  S60  1  0.80930000  0.92790000  0.44070000  1.0
  S2-  S61  1  0.80930000  0.42790000  0.44070000  1.0
  S2-  S62  1  0.80930000  0.92790000  0.94070000  1.0
  S2-  S63  1  0.80930000  0.42790000  0.94070000  1.0
  S2-  S64  1  0.30930000  0.69070000  0.67790000  1.0
  S2-  S65  1  0.30930000  0.19070000  0.67790000  1.0
  S2-  S66  1  0.30930000  0.69070000  0.17790000  1.0
  S2-  S67  1  0.30930000  0.19070000  0.17790000  1.0
  S2-  S68  1  0.80493197  0.68516988  0.67569510  1.0
  S2-  S69  1  0.80751500  0.18578831  0.67727235  1.0
  S2-  S70  1  0.80930000  0.69070000  0.17790000  1.0
  S2-  S71  1  0.80930000  0.19070000  0.17790000  1.0
  S2-  S72  1  0.30930000  0.69070000  0.44070000  1.0
  S2-  S73  1  0.30930000  0.19070000  0.44070000  1.0
  S2-  S74  1  0.30930000  0.69070000  0.94070000  1.0
  S2-  S75  1  0.30930000  0.19070000  0.94070000  1.0
  S2-  S76  1  0.80930000  0.69070000  0.44070000  1.0
  S2-  S77  1  0.80760373  0.18773174  0.44575643  1.0
  S2-  S78  1  0.80930000  0.69070000  0.94070000  1.0
  S2-  S79  1  0.80930000  0.19070000  0.94070000  1.0
  S2-  S80  1  0.07618629  0.69266310  0.44193654  1.0
  S2-  S81  1  0.07210000  0.19070000  0.44070000  1.0
  S2-  S82  1  0.07210000  0.69070000  0.94070000  1.0
  S2-  S83  1  0.07210000  0.19070000  0.94070000  1.0
  S2-  S84  1  0.57210000  0.69070000  0.44070000  1.0
  S2-  S85  1  0.57210000  0.19070000  0.44070000  1.0
  S2-  S86  1  0.57210000  0.69070000  0.94070000  1.0
  S2-  S87  1  0.57210000  0.19070000  0.94070000  1.0
  S2-  S88  1  0.12500000  0.87500000  0.12500000  1.0
  S2-  S89  1  0.62865855  0.87554167  0.12921507  1.0
  S2-  S90  1  0.00000000  0.00000000  0.75000000  1.0
  S2-  S91  1  0.99964628  0.49971967  0.75187970  1.0
  S2-  S92  1  0.00157367  0.99677262  0.24800148  1.0
  S2-  S93  1  0.50000000  0.00000000  0.75000000  1.0
  S2-  S94  1  0.50000000  0.50000000  0.75000000  1.0
  S2-  S95  1  0.50000000  0.50000000  0.25000000  1.0
  Cl-  Cl96  1  0.12500000  0.87500000  0.62500000  1.0
  Cl-  Cl97  1  0.12500000  0.37500000  0.62500000  1.0
  Cl-  Cl98  1  0.12500000  0.37500000  0.12500000  1.0
  Cl-  Cl99  1  0.62500000  0.87500000  0.62500000  1.0
  Cl-  Cl100  1  0.62500000  0.37500000  0.62500000  1.0
  Cl-  Cl101  1  0.62500000  0.37500000  0.12500000  1.0
  Cl-  Cl102  1  0.00000000  0.50000000  0.25000000  1.0
  Cl-  Cl103  1  0.50000000  0.00000000  0.25000000  1.0
