# generated using pymatgen
data_Li12Zn9(PS4)10
_symmetry_space_group_name_H-M   'P 1'
_cell_length_a   28.82050000
_cell_length_b   12.02757232
_cell_length_c   11.52820000
_cell_angle_alpha   118.63581084
_cell_angle_beta   90.00000000
_cell_angle_gamma   61.36418916
_symmetry_Int_Tables_number   1
_chemical_formula_structural   Li12Zn9(PS4)10
_chemical_formula_sum   'Li24 Zn18 P20 S80'
_cell_volume   2938.33917719
_cell_formula_units_Z   2
loop_
 _symmetry_equiv_pos_site_id
 _symmetry_equiv_pos_as_xyz
  1  'x, y, z'
loop_
 _atom_type_symbol
 _atom_type_oxidation_number
  Li+  1.0
  Zn2+  2.0
  P5+  5.0
  S2-  -2.0
loop_
 _atom_site_type_symbol
 _atom_site_label
 _atom_site_symmetry_multiplicity
 _atom_site_fract_x
 _atom_site_fract_y
 _atom_site_fract_z
 _atom_site_occupancy
  Li+  Li0  1  0.10000000  0.00000000  0.50000000  1.0
  Li+  Li1  1  0.10000000  0.50000000  0.50000000  1.0
  Li+  Li2  1  0.10045757  0.99746590  0.00169560  1.0
  Li+  Li3  1  0.10000000  0.50000000  0.00000000  1.0
  Li+  Li4  1  0.30000000  0.00000000  0.50000000  1.0
  Li+  Li5  1  0.30286556  0.50073496  0.49933661  1.0
  Li+  Li6  1  0.30000000  0.00000000  0.00000000  1.0
  Li+  Li7  1  0.30000000  0.50000000  0.00000000  1.0
  Li+  Li8  1  0.50000000  0.00000000  0.50000000  1.0
  Li+  Li9  1  0.50000000  0.50000000  0.50000000  1.0
  Li+  Li10  1  0.50368281  0.00387106  0.00115068  1.0
  Li+  Li11  1  0.50057050  0.49885236  0.00284697  1.0
  Li+  Li12  1  0.70045416  0.00118069  0.50270265  1.0
  Li+  Li13  1  0.70000000  0.50000000  0.50000000  1.0
  Li+  Li14  1  0.70000000  0.00000000  0.00000000  1.0
  Li+  Li15  1  0.70122466  0.49982443  0.00204526  1.0
  Li+  Li16  1  0.89724358  0.00224687  0.50209572  1.0
  Li+  Li17  1  0.90086985  0.50037883  0.49774473  1.0
  Li+  Li18  1  0.90000000  0.00000000  0.00000000  1.0
  Li+  Li19  1  0.90000000  0.50000000  0.00000000  1.0
  Li+  Li20  1  0.55000000  0.75000000  0.12500000  1.0
  Li+  Li21  1  0.55000000  0.25000000  0.12500000  1.0
  Li+  Li22  1  0.60000000  0.00000000  0.25000000  1.0
  Li+  Li23  1  0.60000000  0.50000000  0.25000000  1.0
  Zn2+  Zn24  1  0.00000000  0.00000000  0.75000000  1.0
  Zn2+  Zn25  1  0.00000000  0.50000000  0.75000000  1.0
  Zn2+  Zn26  1  0.99709876  0.99904191  0.25165068  1.0
  Zn2+  Zn27  1  0.99937278  0.49861154  0.24802142  1.0
  Zn2+  Zn28  1  0.20000000  0.00000000  0.75000000  1.0
  Zn2+  Zn29  1  0.20000000  0.50000000  0.75000000  1.0
  Zn2+  Zn30  1  0.19934329  0.99935398  0.24647943  1.0
  Zn2+  Zn31  1  0.20245632  0.50095049  0.25222951  1.0
  Zn2+  Zn32  1  0.40000000  0.00000000  0.75000000  1.0
  Zn2+  Zn33  1  0.40000000  0.50000000  0.75000000  1.0
  Zn2+  Zn34  1  0.39896092  0.00132101  0.24994599  1.0
  Zn2+  Zn35  1  0.39998561  0.50147772  0.25183861  1.0
  Zn2+  Zn36  1  0.60038047  0.00168772  0.75176214  1.0
  Zn2+  Zn37  1  0.60000000  0.50000000  0.75000000  1.0
  Zn2+  Zn38  1  0.80000000  0.00000000  0.75000000  1.0
  Zn2+  Zn39  1  0.80000000  0.50000000  0.75000000  1.0
  Zn2+  Zn40  1  0.80000000  0.00000000  0.25000000  1.0
  Zn2+  Zn41  1  0.80000000  0.50000000  0.25000000  1.0
  P5+  P42  1  0.04913031  0.75119459  0.37249687  1.0
  P5+  P43  1  0.05000000  0.25000000  0.37500000  1.0
  P5+  P44  1  0.05000000  0.75000000  0.87500000  1.0
  P5+  P45  1  0.05000000  0.25000000  0.87500000  1.0
  P5+  P46  1  0.24848732  0.74872130  0.37468453  1.0
  P5+  P47  1  0.25488327  0.24970723  0.37258074  1.0
  P5+  P48  1  0.25000000  0.75000000  0.87500000  1.0
  P5+  P49  1  0.24747746  0.25016276  0.87662185  1.0
  P5+  P50  1  0.45000000  0.75000000  0.37500000  1.0
  P5+  P51  1  0.45000000  0.25000000  0.37500000  1.0
  P5+  P52  1  0.45000000  0.75000000  0.87500000  1.0
  P5+  P53  1  0.45000000  0.25000000  0.87500000  1.0
  P5+  P54  1  0.65000000  0.75000000  0.37500000  1.0
  P5+  P55  1  0.65000000  0.25000000  0.37500000  1.0
  P5+  P56  1  0.65000000  0.75000000  0.87500000  1.0
  P5+  P57  1  0.65000000  0.25000000  0.87500000  1.0
  P5+  P58  1  0.85000000  0.75000000  0.37500000  1.0
  P5+  P59  1  0.85000000  0.25000000  0.37500000  1.0
  P5+  P60  1  0.85000000  0.75000000  0.87500000  1.0
  P5+  P61  1  0.84973286  0.24925156  0.87297085  1.0
  S2-  S62  1  0.11918000  0.62200000  0.41340000  1.0
  S2-  S63  1  0.11918000  0.12200000  0.41340000  1.0
  S2-  S64  1  0.11787502  0.61781242  0.91672336  1.0
  S2-  S65  1  0.11918000  0.12200000  0.91340000  1.0
  S2-  S66  1  0.31918000  0.62200000  0.41340000  1.0
  S2-  S67  1  0.31918000  0.12200000  0.41340000  1.0
  S2-  S68  1  0.31918000  0.62200000  0.91340000  1.0
  S2-  S69  1  0.31918000  0.12200000  0.91340000  1.0
  S2-  S70  1  0.51918000  0.62200000  0.41340000  1.0
  S2-  S71  1  0.51918000  0.12200000  0.41340000  1.0
  S2-  S72  1  0.51918000  0.62200000  0.91340000  1.0
  S2-  S73  1  0.51918000  0.12200000  0.91340000  1.0
  S2-  S74  1  0.71918000  0.62200000  0.41340000  1.0
  S2-  S75  1  0.71918000  0.12200000  0.41340000  1.0
  S2-  S76  1  0.71918000  0.62200000  0.91340000  1.0
  S2-  S77  1  0.71918000  0.12200000  0.91340000  1.0
  S2-  S78  1  0.91918000  0.62200000  0.41340000  1.0
  S2-  S79  1  0.91918000  0.12200000  0.41340000  1.0
  S2-  S80  1  0.91918000  0.62200000  0.91340000  1.0
  S2-  S81  1  0.91918000  0.12200000  0.91340000  1.0
  S2-  S82  1  0.03326390  0.61863423  0.70408603  1.0
  S2-  S83  1  0.03737873  0.11890955  0.71079042  1.0
  S2-  S84  1  0.03202000  0.62200000  0.20860000  1.0
  S2-  S85  1  0.03202000  0.12200000  0.20860000  1.0
  S2-  S86  1  0.23202000  0.62200000  0.70860000  1.0
  S2-  S87  1  0.23202000  0.12200000  0.70860000  1.0
  S2-  S88  1  0.23202000  0.62200000  0.20860000  1.0
  S2-  S89  1  0.23202000  0.12200000  0.20860000  1.0
  S2-  S90  1  0.43202000  0.62200000  0.70860000  1.0
  S2-  S91  1  0.43202000  0.12200000  0.70860000  1.0
  S2-  S92  1  0.43202000  0.62200000  0.20860000  1.0
  S2-  S93  1  0.43202000  0.12200000  0.20860000  1.0
  S2-  S94  1  0.63202000  0.62200000  0.70860000  1.0
  S2-  S95  1  0.63202000  0.12200000  0.70860000  1.0
  S2-  S96  1  0.63202000  0.62200000  0.20860000  1.0
  S2-  S97  1  0.63633315  0.12096304  0.20891909  1.0
  S2-  S98  1  0.83202000  0.62200000  0.70860000  1.0
  S2-  S99  1  0.83202000  0.12200000  0.70860000  1.0
  S2-  S100  1  0.83202000  0.62200000  0.20860000  1.0
  S2-  S101  1  0.83202000  0.12200000  0.20860000  1.0
  S2-  S102  1  0.06224084  0.87689260  0.32686754  1.0
  S2-  S103  1  0.06536000  0.37800000  0.33005000  1.0
  S2-  S104  1  0.06536000  0.87800000  0.83005000  1.0
  S2-  S105  1  0.06958187  0.37669178  0.83346643  1.0
  S2-  S106  1  0.26536000  0.87800000  0.33005000  1.0
  S2-  S107  1  0.26722845  0.37755698  0.33058371  1.0
  S2-  S108  1  0.26536000  0.87800000  0.83005000  1.0
  S2-  S109  1  0.26647042  0.37839978  0.82716950  1.0
  S2-  S110  1  0.46536000  0.87800000  0.33005000  1.0
  S2-  S111  1  0.46536000  0.37800000  0.33005000  1.0
  S2-  S112  1  0.46536000  0.87800000  0.83005000  1.0
  S2-  S113  1  0.46652540  0.37624193  0.82792388  1.0
  S2-  S114  1  0.66536000  0.87800000  0.33005000  1.0
  S2-  S115  1  0.66853217  0.37774475  0.32918637  1.0
  S2-  S116  1  0.66536000  0.87800000  0.83005000  1.0
  S2-  S117  1  0.66536000  0.37800000  0.83005000  1.0
  S2-  S118  1  0.86536000  0.87800000  0.33005000  1.0
  S2-  S119  1  0.86536000  0.37800000  0.33005000  1.0
  S2-  S120  1  0.86536000  0.87800000  0.83005000  1.0
  S2-  S121  1  0.86536000  0.37800000  0.83005000  1.0
  S2-  S122  1  0.18344000  0.87800000  0.54795000  1.0
  S2-  S123  1  0.18344000  0.37800000  0.54795000  1.0
  S2-  S124  1  0.18344000  0.87800000  0.04795000  1.0
  S2-  S125  1  0.18344000  0.37800000  0.04795000  1.0
  S2-  S126  1  0.38344000  0.87800000  0.54795000  1.0
  S2-  S127  1  0.38536159  0.38025064  0.54979631  1.0
  S2-  S128  1  0.38289588  0.87989776  0.04652631  1.0
  S2-  S129  1  0.38344000  0.37800000  0.04795000  1.0
  S2-  S130  1  0.58344000  0.87800000  0.54795000  1.0
  S2-  S131  1  0.58344000  0.37800000  0.54795000  1.0
  S2-  S132  1  0.58283425  0.87654157  0.04590851  1.0
  S2-  S133  1  0.58344000  0.37800000  0.04795000  1.0
  S2-  S134  1  0.78344000  0.87800000  0.54795000  1.0
  S2-  S135  1  0.78534943  0.37878638  0.54489609  1.0
  S2-  S136  1  0.78510365  0.87870610  0.04476639  1.0
  S2-  S137  1  0.78344000  0.37800000  0.04795000  1.0
  S2-  S138  1  0.98344000  0.87800000  0.54795000  1.0
  S2-  S139  1  0.98344000  0.37800000  0.54795000  1.0
  S2-  S140  1  0.98344000  0.87800000  0.04795000  1.0
  S2-  S141  1  0.98344000  0.37800000  0.04795000  1.0
