# generated using pymatgen
data_Li12Zn9(PS4)10
_symmetry_space_group_name_H-M   'P 1'
_cell_length_a   11.63903026
_cell_length_b   29.09757565
_cell_length_c   12.14320346
_cell_angle_alpha   61.36418916
_cell_angle_beta   61.36418916
_cell_angle_gamma   90.00000000
_symmetry_Int_Tables_number   1
_chemical_formula_structural   Li12Zn9(PS4)10
_chemical_formula_sum   'Li24 Zn18 P20 S80'
_cell_volume   3023.90268306
_cell_formula_units_Z   2
loop_
 _symmetry_equiv_pos_site_id
 _symmetry_equiv_pos_as_xyz
  1  'x, y, z'
loop_
 _atom_type_symbol
 _atom_type_oxidation_number
  Li+  1.0
  Zn2+  2.0
  P5+  5.0
  S2-  -2.0
loop_
 _atom_site_type_symbol
 _atom_site_label
 _atom_site_symmetry_multiplicity
 _atom_site_fract_x
 _atom_site_fract_y
 _atom_site_fract_z
 _atom_site_occupancy
  Li+  Li0  1  0.75000000  0.56666667  0.00000000  1.0
  Li+  Li1  1  0.75000000  0.56666667  0.50000000  1.0
  Li+  Li2  1  0.25000000  0.56666667  0.00000000  1.0
  Li+  Li3  1  0.25000000  0.56666667  0.50000000  1.0
  Li+  Li4  1  0.75000000  0.36666667  0.00000000  1.0
  Li+  Li5  1  0.75000000  0.36666667  0.50000000  1.0
  Li+  Li6  1  0.25000000  0.36666667  0.00000000  1.0
  Li+  Li7  1  0.25000000  0.36666667  0.50000000  1.0
  Li+  Li8  1  0.75000000  0.16666667  0.00000000  1.0
  Li+  Li9  1  0.75000000  0.16666667  0.50000000  1.0
  Li+  Li10  1  0.25000000  0.16666667  0.00000000  1.0
  Li+  Li11  1  0.25000000  0.16666667  0.50000000  1.0
  Li+  Li12  1  0.75000000  0.96666667  0.00000000  1.0
  Li+  Li13  1  0.75000000  0.96666667  0.50000000  1.0
  Li+  Li14  1  0.25000000  0.96666667  0.00000000  1.0
  Li+  Li15  1  0.25000000  0.96666667  0.50000000  1.0
  Li+  Li16  1  0.75000000  0.76666667  0.00000000  1.0
  Li+  Li17  1  0.75000000  0.76666667  0.50000000  1.0
  Li+  Li18  1  0.25000000  0.76666667  0.00000000  1.0
  Li+  Li19  1  0.25000000  0.76666667  0.50000000  1.0
  Li+  Li20  1  0.37500000  0.11666667  0.25000000  1.0
  Li+  Li21  1  0.37500000  0.11666667  0.75000000  1.0
  Li+  Li22  1  0.50000000  0.06666667  0.00000000  1.0
  Li+  Li23  1  0.50000000  0.06666667  0.50000000  1.0
  Zn2+  Zn24  1  0.00000000  0.66666667  0.00000000  1.0
  Zn2+  Zn25  1  0.00000000  0.66666667  0.50000000  1.0
  Zn2+  Zn26  1  0.50000000  0.66666667  0.00000000  1.0
  Zn2+  Zn27  1  0.50000000  0.66666667  0.50000000  1.0
  Zn2+  Zn28  1  0.00000000  0.46666667  0.00000000  1.0
  Zn2+  Zn29  1  0.00000000  0.46666667  0.50000000  1.0
  Zn2+  Zn30  1  0.50000000  0.46666667  0.00000000  1.0
  Zn2+  Zn31  1  0.50000000  0.46666667  0.50000000  1.0
  Zn2+  Zn32  1  0.00000000  0.26666667  0.00000000  1.0
  Zn2+  Zn33  1  0.00000000  0.26666667  0.50000000  1.0
  Zn2+  Zn34  1  0.50000000  0.26666667  0.00000000  1.0
  Zn2+  Zn35  1  0.50000000  0.26666667  0.50000000  1.0
  Zn2+  Zn36  1  0.00000000  0.06666667  0.00000000  1.0
  Zn2+  Zn37  1  0.00000000  0.06666667  0.50000000  1.0
  Zn2+  Zn38  1  0.00000000  0.86666667  0.00000000  1.0
  Zn2+  Zn39  1  0.00000000  0.86666667  0.50000000  1.0
  Zn2+  Zn40  1  0.50000000  0.86666667  0.00000000  1.0
  Zn2+  Zn41  1  0.50000000  0.86666667  0.50000000  1.0
  P5+  P42  1  0.62500000  0.61666667  0.25000000  1.0
  P5+  P43  1  0.62500000  0.61666667  0.75000000  1.0
  P5+  P44  1  0.12500000  0.61666667  0.25000000  1.0
  P5+  P45  1  0.12500000  0.61666667  0.75000000  1.0
  P5+  P46  1  0.62500000  0.41666667  0.25000000  1.0
  P5+  P47  1  0.62500000  0.41666667  0.75000000  1.0
  P5+  P48  1  0.12500000  0.41666667  0.25000000  1.0
  P5+  P49  1  0.12500000  0.41666667  0.75000000  1.0
  P5+  P50  1  0.62500000  0.21666667  0.25000000  1.0
  P5+  P51  1  0.62500000  0.21666667  0.75000000  1.0
  P5+  P52  1  0.12500000  0.21666667  0.25000000  1.0
  P5+  P53  1  0.12500000  0.21666667  0.75000000  1.0
  P5+  P54  1  0.62500000  0.01666667  0.25000000  1.0
  P5+  P55  1  0.62500000  0.01666667  0.75000000  1.0
  P5+  P56  1  0.12500000  0.01666667  0.25000000  1.0
  P5+  P57  1  0.12500000  0.01666667  0.75000000  1.0
  P5+  P58  1  0.62500000  0.81666667  0.25000000  1.0
  P5+  P59  1  0.62500000  0.81666667  0.75000000  1.0
  P5+  P60  1  0.12500000  0.81666667  0.25000000  1.0
  P5+  P61  1  0.12500000  0.81666667  0.75000000  1.0
  S2-  S62  1  0.66340000  0.54748667  0.37800000  1.0
  S2-  S63  1  0.66340000  0.54748667  0.87800000  1.0
  S2-  S64  1  0.16340000  0.54748667  0.37800000  1.0
  S2-  S65  1  0.16340000  0.54748667  0.87800000  1.0
  S2-  S66  1  0.66340000  0.34748667  0.37800000  1.0
  S2-  S67  1  0.66340000  0.34748667  0.87800000  1.0
  S2-  S68  1  0.16340000  0.34748667  0.37800000  1.0
  S2-  S69  1  0.16340000  0.34748667  0.87800000  1.0
  S2-  S70  1  0.66340000  0.14748667  0.37800000  1.0
  S2-  S71  1  0.66340000  0.14748667  0.87800000  1.0
  S2-  S72  1  0.16340000  0.14748667  0.37800000  1.0
  S2-  S73  1  0.16340000  0.14748667  0.87800000  1.0
  S2-  S74  1  0.66340000  0.94748667  0.37800000  1.0
  S2-  S75  1  0.66340000  0.94748667  0.87800000  1.0
  S2-  S76  1  0.16340000  0.94748667  0.37800000  1.0
  S2-  S77  1  0.16340000  0.94748667  0.87800000  1.0
  S2-  S78  1  0.66340000  0.74748667  0.37800000  1.0
  S2-  S79  1  0.66340000  0.74748667  0.87800000  1.0
  S2-  S80  1  0.16340000  0.74748667  0.37800000  1.0
  S2-  S81  1  0.16340000  0.74748667  0.87800000  1.0
  S2-  S82  1  0.95860000  0.63464667  0.37800000  1.0
  S2-  S83  1  0.95860000  0.63464667  0.87800000  1.0
  S2-  S84  1  0.45860000  0.63464667  0.37800000  1.0
  S2-  S85  1  0.45860000  0.63464667  0.87800000  1.0
  S2-  S86  1  0.95860000  0.43464667  0.37800000  1.0
  S2-  S87  1  0.95860000  0.43464667  0.87800000  1.0
  S2-  S88  1  0.45860000  0.43464667  0.37800000  1.0
  S2-  S89  1  0.45860000  0.43464667  0.87800000  1.0
  S2-  S90  1  0.95860000  0.23464667  0.37800000  1.0
  S2-  S91  1  0.95860000  0.23464667  0.87800000  1.0
  S2-  S92  1  0.45860000  0.23464667  0.37800000  1.0
  S2-  S93  1  0.45860000  0.23464667  0.87800000  1.0
  S2-  S94  1  0.95860000  0.03464667  0.37800000  1.0
  S2-  S95  1  0.95860000  0.03464667  0.87800000  1.0
  S2-  S96  1  0.45860000  0.03464667  0.37800000  1.0
  S2-  S97  1  0.45860000  0.03464667  0.87800000  1.0
  S2-  S98  1  0.95860000  0.83464667  0.37800000  1.0
  S2-  S99  1  0.95860000  0.83464667  0.87800000  1.0
  S2-  S100  1  0.45860000  0.83464667  0.37800000  1.0
  S2-  S101  1  0.45860000  0.83464667  0.87800000  1.0
  S2-  S102  1  0.58005000  0.60130667  0.12200000  1.0
  S2-  S103  1  0.58005000  0.60130667  0.62200000  1.0
  S2-  S104  1  0.08005000  0.60130667  0.12200000  1.0
  S2-  S105  1  0.08005000  0.60130667  0.62200000  1.0
  S2-  S106  1  0.58005000  0.40130667  0.12200000  1.0
  S2-  S107  1  0.58005000  0.40130667  0.62200000  1.0
  S2-  S108  1  0.08005000  0.40130667  0.12200000  1.0
  S2-  S109  1  0.08005000  0.40130667  0.62200000  1.0
  S2-  S110  1  0.58005000  0.20130667  0.12200000  1.0
  S2-  S111  1  0.58005000  0.20130667  0.62200000  1.0
  S2-  S112  1  0.08005000  0.20130667  0.12200000  1.0
  S2-  S113  1  0.08005000  0.20130667  0.62200000  1.0
  S2-  S114  1  0.58005000  0.00130667  0.12200000  1.0
  S2-  S115  1  0.58005000  0.00130667  0.62200000  1.0
  S2-  S116  1  0.08005000  0.00130667  0.12200000  1.0
  S2-  S117  1  0.08005000  0.00130667  0.62200000  1.0
  S2-  S118  1  0.58005000  0.80130667  0.12200000  1.0
  S2-  S119  1  0.58005000  0.80130667  0.62200000  1.0
  S2-  S120  1  0.08005000  0.80130667  0.12200000  1.0
  S2-  S121  1  0.08005000  0.80130667  0.62200000  1.0
  S2-  S122  1  0.79795000  0.48322667  0.12200000  1.0
  S2-  S123  1  0.79795000  0.48322667  0.62200000  1.0
  S2-  S124  1  0.29795000  0.48322667  0.12200000  1.0
  S2-  S125  1  0.29795000  0.48322667  0.62200000  1.0
  S2-  S126  1  0.79795000  0.28322667  0.12200000  1.0
  S2-  S127  1  0.79795000  0.28322667  0.62200000  1.0
  S2-  S128  1  0.29795000  0.28322667  0.12200000  1.0
  S2-  S129  1  0.29795000  0.28322667  0.62200000  1.0
  S2-  S130  1  0.79795000  0.08322667  0.12200000  1.0
  S2-  S131  1  0.79795000  0.08322667  0.62200000  1.0
  S2-  S132  1  0.29795000  0.08322667  0.12200000  1.0
  S2-  S133  1  0.29795000  0.08322667  0.62200000  1.0
  S2-  S134  1  0.79795000  0.88322667  0.12200000  1.0
  S2-  S135  1  0.79795000  0.88322667  0.62200000  1.0
  S2-  S136  1  0.29795000  0.88322667  0.12200000  1.0
  S2-  S137  1  0.29795000  0.88322667  0.62200000  1.0
  S2-  S138  1  0.79795000  0.68322667  0.12200000  1.0
  S2-  S139  1  0.79795000  0.68322667  0.62200000  1.0
  S2-  S140  1  0.29795000  0.68322667  0.12200000  1.0
  S2-  S141  1  0.29795000  0.68322667  0.62200000  1.0
