# generated using pymatgen
data_Li12Zn9(PS4)10
_symmetry_space_group_name_H-M   'P 1'
_cell_length_a   28.82050000
_cell_length_b   11.52820000
_cell_length_c   12.02757232
_cell_angle_alpha   118.63581084
_cell_angle_beta   118.63581084
_cell_angle_gamma   90.00000000
_symmetry_Int_Tables_number   1
_chemical_formula_structural   Li12Zn9(PS4)10
_chemical_formula_sum   'Li24 Zn18 P20 S80'
_cell_volume   2938.33917719
_cell_formula_units_Z   2
loop_
 _symmetry_equiv_pos_site_id
 _symmetry_equiv_pos_as_xyz
  1  'x, y, z'
loop_
 _atom_type_symbol
 _atom_type_oxidation_number
  Li+  1.0
  Zn2+  2.0
  P5+  5.0
  S2-  -2.0
loop_
 _atom_site_type_symbol
 _atom_site_label
 _atom_site_symmetry_multiplicity
 _atom_site_fract_x
 _atom_site_fract_y
 _atom_site_fract_z
 _atom_site_occupancy
  Li+  Li2  1  0.10000000  0.25000000  0.00000000  1.0
  Li+  Li2  1  0.10000000  0.25000000  0.50000000  1.0
  Li+  Li2  1  0.10000000  0.75000000  0.00000000  1.0
  Li+  Li2  1  0.10000000  0.75000000  0.50000000  1.0
  Li+  Li2  1  0.30000000  0.25000000  0.00000000  1.0
  Li+  Li2  1  0.30000000  0.25000000  0.50000000  1.0
  Li+  Li2  1  0.30000000  0.75000000  0.00000000  1.0
  Li+  Li2  1  0.30000000  0.75000000  0.50000000  1.0
  Li+  Li2  1  0.50000000  0.25000000  0.00000000  1.0
  Li+  Li2  1  0.50000000  0.25000000  0.50000000  1.0
  Li+  Li2  1  0.50000000  0.75000000  0.00000000  1.0
  Li+  Li2  1  0.50000000  0.75000000  0.50000000  1.0
  Li+  Li2  1  0.70000000  0.25000000  0.00000000  1.0
  Li+  Li2  1  0.70000000  0.25000000  0.50000000  1.0
  Li+  Li2  1  0.70000000  0.75000000  0.00000000  1.0
  Li+  Li2  1  0.70000000  0.75000000  0.50000000  1.0
  Li+  Li2  1  0.90000000  0.25000000  0.00000000  1.0
  Li+  Li2  1  0.90000000  0.25000000  0.50000000  1.0
  Li+  Li2  1  0.90000000  0.75000000  0.00000000  1.0
  Li+  Li2  1  0.90000000  0.75000000  0.50000000  1.0
  Li+  Li10  1  0.55000000  0.62500000  0.25000000  1.0
  Li+  Li10  1  0.55000000  0.62500000  0.75000000  1.0
  Li+  Li11  1  0.60000000  0.50000000  0.00000000  1.0
  Li+  Li11  1  0.60000000  0.50000000  0.50000000  1.0
  Zn2+  Zn12  1  0.00000000  0.00000000  0.00000000  1.0
  Zn2+  Zn12  1  0.00000000  0.00000000  0.50000000  1.0
  Zn2+  Zn13  1  0.00000000  0.50000000  0.00000000  1.0
  Zn2+  Zn13  1  0.00000000  0.50000000  0.50000000  1.0
  Zn2+  Zn14  1  0.20000000  0.00000000  0.00000000  1.0
  Zn2+  Zn14  1  0.20000000  0.00000000  0.50000000  1.0
  Zn2+  Zn15  1  0.20000000  0.50000000  0.00000000  1.0
  Zn2+  Zn15  1  0.20000000  0.50000000  0.50000000  1.0
  Zn2+  Zn16  1  0.40000000  0.00000000  0.00000000  1.0
  Zn2+  Zn16  1  0.40000000  0.00000000  0.50000000  1.0
  Zn2+  Zn17  1  0.40000000  0.50000000  0.00000000  1.0
  Zn2+  Zn17  1  0.40000000  0.50000000  0.50000000  1.0
  Zn2+  Zn18  1  0.60000000  0.00000000  0.00000000  1.0
  Zn2+  Zn18  1  0.60000000  0.00000000  0.50000000  1.0
  Zn2+  Zn19  1  0.80000000  0.00000000  0.00000000  1.0
  Zn2+  Zn19  1  0.80000000  0.00000000  0.50000000  1.0
  Zn2+  Zn20  1  0.80000000  0.50000000  1.00000000  1.0
  Zn2+  Zn20  1  0.80000000  0.50000000  0.50000000  1.0
  P5+  P1  1  0.05000000  0.37500000  0.25000000  1.0
  P5+  P1  1  0.05000000  0.37500000  0.75000000  1.0
  P5+  P1  1  0.05000000  0.87500000  0.25000000  1.0
  P5+  P1  1  0.05000000  0.87500000  0.75000000  1.0
  P5+  P1  1  0.25000000  0.37500000  0.25000000  1.0
  P5+  P1  1  0.25000000  0.37500000  0.75000000  1.0
  P5+  P1  1  0.25000000  0.87500000  0.25000000  1.0
  P5+  P1  1  0.25000000  0.87500000  0.75000000  1.0
  P5+  P1  1  0.45000000  0.37500000  0.25000000  1.0
  P5+  P1  1  0.45000000  0.37500000  0.75000000  1.0
  P5+  P1  1  0.45000000  0.87500000  0.25000000  1.0
  P5+  P1  1  0.45000000  0.87500000  0.75000000  1.0
  P5+  P1  1  0.65000000  0.37500000  0.25000000  1.0
  P5+  P1  1  0.65000000  0.37500000  0.75000000  1.0
  P5+  P1  1  0.65000000  0.87500000  0.25000000  1.0
  P5+  P1  1  0.65000000  0.87500000  0.75000000  1.0
  P5+  P1  1  0.85000000  0.37500000  0.25000000  1.0
  P5+  P1  1  0.85000000  0.37500000  0.75000000  1.0
  P5+  P1  1  0.85000000  0.87500000  0.25000000  1.0
  P5+  P1  1  0.85000000  0.87500000  0.75000000  1.0
  S2-  S1  1  0.11918000  0.33660000  0.37800000  1.0
  S2-  S1  1  0.11918000  0.33660000  0.87800000  1.0
  S2-  S1  1  0.11918000  0.83660000  0.37800000  1.0
  S2-  S1  1  0.11918000  0.83660000  0.87800000  1.0
  S2-  S1  1  0.31918000  0.33660000  0.37800000  1.0
  S2-  S1  1  0.31918000  0.33660000  0.87800000  1.0
  S2-  S1  1  0.31918000  0.83660000  0.37800000  1.0
  S2-  S1  1  0.31918000  0.83660000  0.87800000  1.0
  S2-  S1  1  0.51918000  0.33660000  0.37800000  1.0
  S2-  S1  1  0.51918000  0.33660000  0.87800000  1.0
  S2-  S1  1  0.51918000  0.83660000  0.37800000  1.0
  S2-  S1  1  0.51918000  0.83660000  0.87800000  1.0
  S2-  S1  1  0.71918000  0.33660000  0.37800000  1.0
  S2-  S1  1  0.71918000  0.33660000  0.87800000  1.0
  S2-  S1  1  0.71918000  0.83660000  0.37800000  1.0
  S2-  S1  1  0.71918000  0.83660000  0.87800000  1.0
  S2-  S1  1  0.91918000  0.33660000  0.37800000  1.0
  S2-  S1  1  0.91918000  0.33660000  0.87800000  1.0
  S2-  S1  1  0.91918000  0.83660000  0.37800000  1.0
  S2-  S1  1  0.91918000  0.83660000  0.87800000  1.0
  S2-  S1  1  0.03202000  0.04140000  0.37800000  1.0
  S2-  S1  1  0.03202000  0.04140000  0.87800000  1.0
  S2-  S1  1  0.03202000  0.54140000  0.37800000  1.0
  S2-  S1  1  0.03202000  0.54140000  0.87800000  1.0
  S2-  S1  1  0.23202000  0.04140000  0.37800000  1.0
  S2-  S1  1  0.23202000  0.04140000  0.87800000  1.0
  S2-  S1  1  0.23202000  0.54140000  0.37800000  1.0
  S2-  S1  1  0.23202000  0.54140000  0.87800000  1.0
  S2-  S1  1  0.43202000  0.04140000  0.37800000  1.0
  S2-  S1  1  0.43202000  0.04140000  0.87800000  1.0
  S2-  S1  1  0.43202000  0.54140000  0.37800000  1.0
  S2-  S1  1  0.43202000  0.54140000  0.87800000  1.0
  S2-  S1  1  0.63202000  0.04140000  0.37800000  1.0
  S2-  S1  1  0.63202000  0.04140000  0.87800000  1.0
  S2-  S1  1  0.63202000  0.54140000  0.37800000  1.0
  S2-  S1  1  0.63202000  0.54140000  0.87800000  1.0
  S2-  S1  1  0.83202000  0.04140000  0.37800000  1.0
  S2-  S1  1  0.83202000  0.04140000  0.87800000  1.0
  S2-  S1  1  0.83202000  0.54140000  0.37800000  1.0
  S2-  S1  1  0.83202000  0.54140000  0.87800000  1.0
  S2-  S1  1  0.06536000  0.41995000  0.12200000  1.0
  S2-  S1  1  0.06536000  0.41995000  0.62200000  1.0
  S2-  S1  1  0.06536000  0.91995000  0.12200000  1.0
  S2-  S1  1  0.06536000  0.91995000  0.62200000  1.0
  S2-  S1  1  0.26536000  0.41995000  0.12200000  1.0
  S2-  S1  1  0.26536000  0.41995000  0.62200000  1.0
  S2-  S1  1  0.26536000  0.91995000  0.12200000  1.0
  S2-  S1  1  0.26536000  0.91995000  0.62200000  1.0
  S2-  S1  1  0.46536000  0.41995000  0.12200000  1.0
  S2-  S1  1  0.46536000  0.41995000  0.62200000  1.0
  S2-  S1  1  0.46536000  0.91995000  0.12200000  1.0
  S2-  S1  1  0.46536000  0.91995000  0.62200000  1.0
  S2-  S1  1  0.66536000  0.41995000  0.12200000  1.0
  S2-  S1  1  0.66536000  0.41995000  0.62200000  1.0
  S2-  S1  1  0.66536000  0.91995000  0.12200000  1.0
  S2-  S1  1  0.66536000  0.91995000  0.62200000  1.0
  S2-  S1  1  0.86536000  0.41995000  0.12200000  1.0
  S2-  S1  1  0.86536000  0.41995000  0.62200000  1.0
  S2-  S1  1  0.86536000  0.91995000  0.12200000  1.0
  S2-  S1  1  0.86536000  0.91995000  0.62200000  1.0
  S2-  S1  1  0.18344000  0.20205000  0.12200000  1.0
  S2-  S1  1  0.18344000  0.20205000  0.62200000  1.0
  S2-  S1  1  0.18344000  0.70205000  0.12200000  1.0
  S2-  S1  1  0.18344000  0.70205000  0.62200000  1.0
  S2-  S1  1  0.38344000  0.20205000  0.12200000  1.0
  S2-  S1  1  0.38344000  0.20205000  0.62200000  1.0
  S2-  S1  1  0.38344000  0.70205000  0.12200000  1.0
  S2-  S1  1  0.38344000  0.70205000  0.62200000  1.0
  S2-  S1  1  0.58344000  0.20205000  0.12200000  1.0
  S2-  S1  1  0.58344000  0.20205000  0.62200000  1.0
  S2-  S1  1  0.58344000  0.70205000  0.12200000  1.0
  S2-  S1  1  0.58344000  0.70205000  0.62200000  1.0
  S2-  S1  1  0.78344000  0.20205000  0.12200000  1.0
  S2-  S1  1  0.78344000  0.20205000  0.62200000  1.0
  S2-  S1  1  0.78344000  0.70205000  0.12200000  1.0
  S2-  S1  1  0.78344000  0.70205000  0.62200000  1.0
  S2-  S1  1  0.98344000  0.20205000  0.12200000  1.0
  S2-  S1  1  0.98344000  0.20205000  0.62200000  1.0
  S2-  S1  1  0.98344000  0.70205000  0.12200000  1.0
  S2-  S1  1  0.98344000  0.70205000  0.62200000  1.0
