# generated using pymatgen
data_Li16Sn(SbS5)4
_symmetry_space_group_name_H-M   'P 1'
_cell_length_a   7.97140000
_cell_length_b   31.86295000
_cell_length_c   13.71832000
_cell_angle_alpha   90.00000000
_cell_angle_beta   90.00000000
_cell_angle_gamma   90.00000000
_symmetry_Int_Tables_number   1
_chemical_formula_structural   Li16Sn(SbS5)4
_chemical_formula_sum   'Li64 Sn4 Sb16 S80'
_cell_volume   3484.34791823
_cell_formula_units_Z   4
loop_
 _symmetry_equiv_pos_site_id
 _symmetry_equiv_pos_as_xyz
  1  'x, y, z'
loop_
 _atom_type_symbol
 _atom_type_oxidation_number
  Li+  1.0
  Sn4+  4.0
  Sb5+  5.0
  S2-  -2.0
loop_
 _atom_site_type_symbol
 _atom_site_label
 _atom_site_symmetry_multiplicity
 _atom_site_fract_x
 _atom_site_fract_y
 _atom_site_fract_z
 _atom_site_occupancy
  Li+  Li0  1  0.24979389  0.90736420  0.65610529  1.0
  Li+  Li1  1  0.25446887  0.89791471  0.15948937  1.0
  Li+  Li2  1  0.25410000  0.69800000  0.66150000  1.0
  Li+  Li3  1  0.25410000  0.69800000  0.16150000  1.0
  Li+  Li4  1  0.25410000  0.49800000  0.66150000  1.0
  Li+  Li5  1  0.25974675  0.49719339  0.16393652  1.0
  Li+  Li6  1  0.25410000  0.29800000  0.66150000  1.0
  Li+  Li7  1  0.25410000  0.29800000  0.16150000  1.0
  Li+  Li8  1  0.25410000  0.09800000  0.66150000  1.0
  Li+  Li9  1  0.25536039  0.10056369  0.16037888  1.0
  Li+  Li10  1  0.24590000  0.99800000  0.33850000  1.0
  Li+  Li11  1  0.24590000  0.99800000  0.83850000  1.0
  Li+  Li12  1  0.24590000  0.79800000  0.33850000  1.0
  Li+  Li13  1  0.25062161  0.80049759  0.83871643  1.0
  Li+  Li14  1  0.24590000  0.59800000  0.33850000  1.0
  Li+  Li15  1  0.24590000  0.59800000  0.83850000  1.0
  Li+  Li16  1  0.24590000  0.39800000  0.33850000  1.0
  Li+  Li17  1  0.24503132  0.39610529  0.84048607  1.0
  Li+  Li18  1  0.24691732  0.20110933  0.34185846  1.0
  Li+  Li19  1  0.24590000  0.19800000  0.83850000  1.0
  Li+  Li20  1  0.75410000  0.99800000  0.33850000  1.0
  Li+  Li21  1  0.75410000  0.99800000  0.83850000  1.0
  Li+  Li22  1  0.75410000  0.79800000  0.33850000  1.0
  Li+  Li23  1  0.75573203  0.80068729  0.83949920  1.0
  Li+  Li24  1  0.75410000  0.59800000  0.33850000  1.0
  Li+  Li25  1  0.75410000  0.59800000  0.83850000  1.0
  Li+  Li26  1  0.75410000  0.39800000  0.33850000  1.0
  Li+  Li27  1  0.75410000  0.39800000  0.83850000  1.0
  Li+  Li28  1  0.75410000  0.19800000  0.33850000  1.0
  Li+  Li29  1  0.75410000  0.19800000  0.83850000  1.0
  Li+  Li30  1  0.74590000  0.89800000  0.66150000  1.0
  Li+  Li31  1  0.74590000  0.89800000  0.16150000  1.0
  Li+  Li32  1  0.74590000  0.69800000  0.66150000  1.0
  Li+  Li33  1  0.74383676  0.69674365  0.15794475  1.0
  Li+  Li34  1  0.74590000  0.49800000  0.66150000  1.0
  Li+  Li35  1  0.74590000  0.49800000  0.16150000  1.0
  Li+  Li36  1  0.74590000  0.29800000  0.66150000  1.0
  Li+  Li37  1  0.74590000  0.29800000  0.16150000  1.0
  Li+  Li38  1  0.74590000  0.09800000  0.66150000  1.0
  Li+  Li39  1  0.74590000  0.09800000  0.16150000  1.0
  Li+  Li40  1  0.00000000  0.89860000  0.42240000  1.0
  Li+  Li41  1  0.00000000  0.89860000  0.92240000  1.0
  Li+  Li42  1  0.00024642  0.70211412  0.42210296  1.0
  Li+  Li43  1  0.00000000  0.69860000  0.92240000  1.0
  Li+  Li44  1  0.00000000  0.49860000  0.42240000  1.0
  Li+  Li45  1  0.00000000  0.49860000  0.92240000  1.0
  Li+  Li46  1  0.00000000  0.29860000  0.42240000  1.0
  Li+  Li47  1  0.00000000  0.29860000  0.92240000  1.0
  Li+  Li48  1  0.99975264  0.10022322  0.42355331  1.0
  Li+  Li49  1  0.00058878  0.09812077  0.92255154  1.0
  Li+  Li50  1  0.50000000  0.99860000  0.57760000  1.0
  Li+  Li51  1  0.50000000  0.99860000  0.07760000  1.0
  Li+  Li52  1  0.49792895  0.80100445  0.57398408  1.0
  Li+  Li53  1  0.50000000  0.79860000  0.07760000  1.0
  Li+  Li54  1  0.50000000  0.59860000  0.57760000  1.0
  Li+  Li55  1  0.50000000  0.59860000  0.07760000  1.0
  Li+  Li56  1  0.49458253  0.39865153  0.57957624  1.0
  Li+  Li57  1  0.50000000  0.39860000  0.07760000  1.0
  Li+  Li58  1  0.50000000  0.19860000  0.57760000  1.0
  Li+  Li59  1  0.49994915  0.20154566  0.08003311  1.0
  Li+  Li60  1  0.50000000  0.63907480  0.25595400  1.0
  Li+  Li61  1  0.50000000  0.63907480  0.75595400  1.0
  Li+  Li62  1  0.50000000  0.43907480  0.25595400  1.0
  Li+  Li63  1  0.50000000  0.43907480  0.75595400  1.0
  Sn4+  Sn64  1  0.49552371  0.69845724  0.41418463  1.0
  Sn4+  Sn65  1  0.50000000  0.70000000  0.91282500  1.0
  Sn4+  Sn66  1  0.49571646  0.49948741  0.41123742  1.0
  Sn4+  Sn67  1  0.50000000  0.50000000  0.91282500  1.0
  Sb5+  Sb68  1  0.00000000  0.00000000  0.58717500  1.0
  Sb5+  Sb69  1  0.00000000  0.00000000  0.08717500  1.0
  Sb5+  Sb70  1  0.00000000  0.80000000  0.58717500  1.0
  Sb5+  Sb71  1  0.00000000  0.80000000  0.08717500  1.0
  Sb5+  Sb72  1  0.00000000  0.60000000  0.58717500  1.0
  Sb5+  Sb73  1  0.99917679  0.59729006  0.08973986  1.0
  Sb5+  Sb74  1  0.00000000  0.40000000  0.58717500  1.0
  Sb5+  Sb75  1  0.00000000  0.40000000  0.08717500  1.0
  Sb5+  Sb76  1  0.99556061  0.19991648  0.58336447  1.0
  Sb5+  Sb77  1  0.00252881  0.20196090  0.08780314  1.0
  Sb5+  Sb78  1  0.50330391  0.90118540  0.40796109  1.0
  Sb5+  Sb79  1  0.50242768  0.90045886  0.91291484  1.0
  Sb5+  Sb80  1  0.50188350  0.30053998  0.41427578  1.0
  Sb5+  Sb81  1  0.50000000  0.30000000  0.91282500  1.0
  Sb5+  Sb82  1  0.50000000  0.10000000  0.41282500  1.0
  Sb5+  Sb83  1  0.50000000  0.10000000  0.91282500  1.0
  S2-  S84  1  0.23890000  0.97712000  0.66655000  1.0
  S2-  S85  1  0.23890000  0.97712000  0.16655000  1.0
  S2-  S86  1  0.23890000  0.77712000  0.66655000  1.0
  S2-  S87  1  0.23890000  0.77712000  0.16655000  1.0
  S2-  S88  1  0.23890000  0.57712000  0.66655000  1.0
  S2-  S89  1  0.23890000  0.57712000  0.16655000  1.0
  S2-  S90  1  0.23890000  0.37712000  0.66655000  1.0
  S2-  S91  1  0.23935456  0.37560451  0.17030484  1.0
  S2-  S92  1  0.23890000  0.17712000  0.66655000  1.0
  S2-  S93  1  0.23890000  0.17712000  0.16655000  1.0
  S2-  S94  1  0.26110000  0.87712000  0.33345000  1.0
  S2-  S95  1  0.26110000  0.87712000  0.83345000  1.0
  S2-  S96  1  0.26110000  0.67712000  0.33345000  1.0
  S2-  S97  1  0.26110000  0.67712000  0.83345000  1.0
  S2-  S98  1  0.26110000  0.47712000  0.33345000  1.0
  S2-  S99  1  0.26110000  0.47712000  0.83345000  1.0
  S2-  S100  1  0.26110000  0.27712000  0.33345000  1.0
  S2-  S101  1  0.26110000  0.27712000  0.83345000  1.0
  S2-  S102  1  0.26347472  0.07646611  0.33162668  1.0
  S2-  S103  1  0.26075076  0.07761945  0.83019387  1.0
  S2-  S104  1  0.73916035  0.87893240  0.33584966  1.0
  S2-  S105  1  0.73890000  0.87712000  0.83345000  1.0
  S2-  S106  1  0.73890000  0.67712000  0.33345000  1.0
  S2-  S107  1  0.74139882  0.68054756  0.83629638  1.0
  S2-  S108  1  0.73890000  0.47712000  0.33345000  1.0
  S2-  S109  1  0.73890000  0.47712000  0.83345000  1.0
  S2-  S110  1  0.73890000  0.27712000  0.33345000  1.0
  S2-  S111  1  0.73890000  0.27712000  0.83345000  1.0
  S2-  S112  1  0.73890000  0.07712000  0.33345000  1.0
  S2-  S113  1  0.73970241  0.07887962  0.83854842  1.0
  S2-  S114  1  0.76110000  0.97712000  0.66655000  1.0
  S2-  S115  1  0.76110000  0.97712000  0.16655000  1.0
  S2-  S116  1  0.75853118  0.78242174  0.66666667  1.0
  S2-  S117  1  0.75980929  0.77738309  0.16443969  1.0
  S2-  S118  1  0.76110000  0.57712000  0.66655000  1.0
  S2-  S119  1  0.76110000  0.57712000  0.16655000  1.0
  S2-  S120  1  0.76110000  0.37712000  0.66655000  1.0
  S2-  S121  1  0.76110000  0.37712000  0.16655000  1.0
  S2-  S122  1  0.76110000  0.17712000  0.66655000  1.0
  S2-  S123  1  0.76110000  0.17712000  0.16655000  1.0
  S2-  S124  1  0.00000000  0.97738000  0.42880000  1.0
  S2-  S125  1  0.00000000  0.97738000  0.92880000  1.0
  S2-  S126  1  0.00000000  0.77738000  0.42880000  1.0
  S2-  S127  1  0.00000000  0.77738000  0.92880000  1.0
  S2-  S128  1  0.00000000  0.57738000  0.42880000  1.0
  S2-  S129  1  0.00000000  0.57738000  0.92880000  1.0
  S2-  S130  1  0.99816978  0.37656159  0.43211578  1.0
  S2-  S131  1  0.00000000  0.37738000  0.92880000  1.0
  S2-  S132  1  0.00000000  0.17738000  0.42880000  1.0
  S2-  S133  1  0.00000000  0.17738000  0.92880000  1.0
  S2-  S134  1  0.50540110  0.87226080  0.57224888  1.0
  S2-  S135  1  0.50000000  0.87738000  0.07120000  1.0
  S2-  S136  1  0.50000000  0.67738000  0.57120000  1.0
  S2-  S137  1  0.50000000  0.67738000  0.07120000  1.0
  S2-  S138  1  0.49963837  0.47711004  0.57349878  1.0
  S2-  S139  1  0.50000000  0.47738000  0.07120000  1.0
  S2-  S140  1  0.50000000  0.27738000  0.57120000  1.0
  S2-  S141  1  0.50000000  0.27738000  0.07120000  1.0
  S2-  S142  1  0.49874884  0.07988632  0.57287377  1.0
  S2-  S143  1  0.50000000  0.07738000  0.07120000  1.0
  S2-  S144  1  0.00000000  0.87358000  0.58960000  1.0
  S2-  S145  1  0.00000000  0.87358000  0.08960000  1.0
  S2-  S146  1  0.00000000  0.67358000  0.58960000  1.0
  S2-  S147  1  0.00000000  0.67358000  0.08960000  1.0
  S2-  S148  1  0.99759235  0.47614245  0.59075680  1.0
  S2-  S149  1  0.00000000  0.47358000  0.08960000  1.0
  S2-  S150  1  0.00373814  0.27299402  0.59348719  1.0
  S2-  S151  1  0.00000000  0.27358000  0.08960000  1.0
  S2-  S152  1  0.00000000  0.07358000  0.58960000  1.0
  S2-  S153  1  0.99804939  0.07647998  0.08884399  1.0
  S2-  S154  1  0.50000000  0.97358000  0.41040000  1.0
  S2-  S155  1  0.50000000  0.97358000  0.91040000  1.0
  S2-  S156  1  0.50000000  0.77358000  0.41040000  1.0
  S2-  S157  1  0.49882765  0.77637022  0.90978917  1.0
  S2-  S158  1  0.50256056  0.57571283  0.40863942  1.0
  S2-  S159  1  0.50000000  0.57358000  0.91040000  1.0
  S2-  S160  1  0.50000000  0.37358000  0.41040000  1.0
  S2-  S161  1  0.49538238  0.37483699  0.91123864  1.0
  S2-  S162  1  0.50000000  0.17358000  0.41040000  1.0
  S2-  S163  1  0.50000000  0.17358000  0.91040000  1.0
