# generated using pymatgen
data_Li16Sn(SbS5)4
_symmetry_space_group_name_H-M   'P 1'
_cell_length_a   13.76077716
_cell_length_b   7.99607088
_cell_length_c   31.96156342
_cell_angle_alpha   90.00000000
_cell_angle_beta   90.00000000
_cell_angle_gamma   90.00000000
_symmetry_Int_Tables_number   1
_chemical_formula_structural   Li16Sn(SbS5)4
_chemical_formula_sum   'Li64 Sn4 Sb16 S80'
_cell_volume   3516.79952561
_cell_formula_units_Z   4
loop_
 _symmetry_equiv_pos_site_id
 _symmetry_equiv_pos_as_xyz
  1  'x, y, z'
loop_
 _atom_type_symbol
 _atom_type_oxidation_number
  Li+  1.0
  Sn4+  4.0
  Sb5+  5.0
  S2-  -2.0
loop_
 _atom_site_type_symbol
 _atom_site_label
 _atom_site_symmetry_multiplicity
 _atom_site_fract_x
 _atom_site_fract_y
 _atom_site_fract_z
 _atom_site_occupancy
  Li+  Li0  1  0.91150000  0.41256667  0.10200000  1.0
  Li+  Li1  1  0.41150000  0.41256667  0.10200000  1.0
  Li+  Li2  1  0.91150000  0.41256667  0.30200000  1.0
  Li+  Li3  1  0.41150000  0.41256667  0.30200000  1.0
  Li+  Li4  1  0.91150000  0.41256667  0.50200000  1.0
  Li+  Li5  1  0.41150000  0.41256667  0.50200000  1.0
  Li+  Li6  1  0.91150000  0.41256667  0.70200000  1.0
  Li+  Li7  1  0.41150000  0.41256667  0.70200000  1.0
  Li+  Li8  1  0.91150000  0.41256667  0.90200000  1.0
  Li+  Li9  1  0.41150000  0.41256667  0.90200000  1.0
  Li+  Li10  1  0.58850000  0.42076667  0.00200000  1.0
  Li+  Li11  1  0.08850000  0.42076667  0.00200000  1.0
  Li+  Li12  1  0.58850000  0.42076667  0.20200000  1.0
  Li+  Li13  1  0.08850000  0.42076667  0.20200000  1.0
  Li+  Li14  1  0.58850000  0.42076667  0.40200000  1.0
  Li+  Li15  1  0.08850000  0.42076667  0.40200000  1.0
  Li+  Li16  1  0.58850000  0.42076667  0.60200000  1.0
  Li+  Li17  1  0.08850000  0.42076667  0.60200000  1.0
  Li+  Li18  1  0.58850000  0.42076667  0.80200000  1.0
  Li+  Li19  1  0.08850000  0.42076667  0.80200000  1.0
  Li+  Li20  1  0.58850000  0.91256667  0.00200000  1.0
  Li+  Li21  1  0.08850000  0.91256667  0.00200000  1.0
  Li+  Li22  1  0.58850000  0.91256667  0.20200000  1.0
  Li+  Li23  1  0.08850000  0.91256667  0.20200000  1.0
  Li+  Li24  1  0.58850000  0.91256667  0.40200000  1.0
  Li+  Li25  1  0.08850000  0.91256667  0.40200000  1.0
  Li+  Li26  1  0.58850000  0.91256667  0.60200000  1.0
  Li+  Li27  1  0.08850000  0.91256667  0.60200000  1.0
  Li+  Li28  1  0.58850000  0.91256667  0.80200000  1.0
  Li+  Li29  1  0.08850000  0.91256667  0.80200000  1.0
  Li+  Li30  1  0.91150000  0.92076667  0.10200000  1.0
  Li+  Li31  1  0.41150000  0.92076667  0.10200000  1.0
  Li+  Li32  1  0.91150000  0.92076667  0.30200000  1.0
  Li+  Li33  1  0.41150000  0.92076667  0.30200000  1.0
  Li+  Li34  1  0.91150000  0.92076667  0.50200000  1.0
  Li+  Li35  1  0.41150000  0.92076667  0.50200000  1.0
  Li+  Li36  1  0.91150000  0.92076667  0.70200000  1.0
  Li+  Li37  1  0.41150000  0.92076667  0.70200000  1.0
  Li+  Li38  1  0.91150000  0.92076667  0.90200000  1.0
  Li+  Li39  1  0.41150000  0.92076667  0.90200000  1.0
  Li+  Li40  1  0.67240000  0.66666667  0.10140000  1.0
  Li+  Li41  1  0.17240000  0.66666667  0.10140000  1.0
  Li+  Li42  1  0.67240000  0.66666667  0.30140000  1.0
  Li+  Li43  1  0.17240000  0.66666667  0.30140000  1.0
  Li+  Li44  1  0.67240000  0.66666667  0.50140000  1.0
  Li+  Li45  1  0.17240000  0.66666667  0.50140000  1.0
  Li+  Li46  1  0.67240000  0.66666667  0.70140000  1.0
  Li+  Li47  1  0.17240000  0.66666667  0.70140000  1.0
  Li+  Li48  1  0.67240000  0.66666667  0.90140000  1.0
  Li+  Li49  1  0.17240000  0.66666667  0.90140000  1.0
  Li+  Li50  1  0.82760000  0.16666667  0.00140000  1.0
  Li+  Li51  1  0.32760000  0.16666667  0.00140000  1.0
  Li+  Li52  1  0.82760000  0.16666667  0.20140000  1.0
  Li+  Li53  1  0.32760000  0.16666667  0.20140000  1.0
  Li+  Li54  1  0.82760000  0.16666667  0.40140000  1.0
  Li+  Li55  1  0.32760000  0.16666667  0.40140000  1.0
  Li+  Li56  1  0.82760000  0.16666667  0.60140000  1.0
  Li+  Li57  1  0.32760000  0.16666667  0.60140000  1.0
  Li+  Li58  1  0.82760000  0.16666667  0.80140000  1.0
  Li+  Li59  1  0.32760000  0.16666667  0.80140000  1.0
  Li+  Li60  1  0.50595400  0.16666667  0.36092520  1.0
  Li+  Li61  1  0.00595400  0.16666667  0.36092520  1.0
  Li+  Li62  1  0.50595400  0.16666667  0.56092520  1.0
  Li+  Li63  1  0.00595400  0.16666667  0.56092520  1.0
  Sn4+  Sn64  1  0.66282500  0.16666667  0.30000000  1.0
  Sn4+  Sn65  1  0.16282500  0.16666667  0.30000000  1.0
  Sn4+  Sn66  1  0.66282500  0.16666667  0.50000000  1.0
  Sn4+  Sn67  1  0.16282500  0.16666667  0.50000000  1.0
  Sb5+  Sb68  1  0.83717500  0.66666667  0.00000000  1.0
  Sb5+  Sb69  1  0.33717500  0.66666667  0.00000000  1.0
  Sb5+  Sb70  1  0.83717500  0.66666667  0.20000000  1.0
  Sb5+  Sb71  1  0.33717500  0.66666667  0.20000000  1.0
  Sb5+  Sb72  1  0.83717500  0.66666667  0.40000000  1.0
  Sb5+  Sb73  1  0.33717500  0.66666667  0.40000000  1.0
  Sb5+  Sb74  1  0.83717500  0.66666667  0.60000000  1.0
  Sb5+  Sb75  1  0.33717500  0.66666667  0.60000000  1.0
  Sb5+  Sb76  1  0.83717500  0.66666667  0.80000000  1.0
  Sb5+  Sb77  1  0.33717500  0.66666667  0.80000000  1.0
  Sb5+  Sb78  1  0.66282500  0.16666667  0.10000000  1.0
  Sb5+  Sb79  1  0.16282500  0.16666667  0.10000000  1.0
  Sb5+  Sb80  1  0.66282500  0.16666667  0.70000000  1.0
  Sb5+  Sb81  1  0.16282500  0.16666667  0.70000000  1.0
  Sb5+  Sb82  1  0.66282500  0.16666667  0.90000000  1.0
  Sb5+  Sb83  1  0.16282500  0.16666667  0.90000000  1.0
  S2-  S84  1  0.91655000  0.42776667  0.02288000  1.0
  S2-  S85  1  0.41655000  0.42776667  0.02288000  1.0
  S2-  S86  1  0.91655000  0.42776667  0.22288000  1.0
  S2-  S87  1  0.41655000  0.42776667  0.22288000  1.0
  S2-  S88  1  0.91655000  0.42776667  0.42288000  1.0
  S2-  S89  1  0.41655000  0.42776667  0.42288000  1.0
  S2-  S90  1  0.91655000  0.42776667  0.62288000  1.0
  S2-  S91  1  0.41655000  0.42776667  0.62288000  1.0
  S2-  S92  1  0.91655000  0.42776667  0.82288000  1.0
  S2-  S93  1  0.41655000  0.42776667  0.82288000  1.0
  S2-  S94  1  0.58345000  0.40556667  0.12288000  1.0
  S2-  S95  1  0.08345000  0.40556667  0.12288000  1.0
  S2-  S96  1  0.58345000  0.40556667  0.32288000  1.0
  S2-  S97  1  0.08345000  0.40556667  0.32288000  1.0
  S2-  S98  1  0.58345000  0.40556667  0.52288000  1.0
  S2-  S99  1  0.08345000  0.40556667  0.52288000  1.0
  S2-  S100  1  0.58345000  0.40556667  0.72288000  1.0
  S2-  S101  1  0.08345000  0.40556667  0.72288000  1.0
  S2-  S102  1  0.58345000  0.40556667  0.92288000  1.0
  S2-  S103  1  0.08345000  0.40556667  0.92288000  1.0
  S2-  S104  1  0.58345000  0.92776667  0.12288000  1.0
  S2-  S105  1  0.08345000  0.92776667  0.12288000  1.0
  S2-  S106  1  0.58345000  0.92776667  0.32288000  1.0
  S2-  S107  1  0.08345000  0.92776667  0.32288000  1.0
  S2-  S108  1  0.58345000  0.92776667  0.52288000  1.0
  S2-  S109  1  0.08345000  0.92776667  0.52288000  1.0
  S2-  S110  1  0.58345000  0.92776667  0.72288000  1.0
  S2-  S111  1  0.08345000  0.92776667  0.72288000  1.0
  S2-  S112  1  0.58345000  0.92776667  0.92288000  1.0
  S2-  S113  1  0.08345000  0.92776667  0.92288000  1.0
  S2-  S114  1  0.91655000  0.90556667  0.02288000  1.0
  S2-  S115  1  0.41655000  0.90556667  0.02288000  1.0
  S2-  S116  1  0.91655000  0.90556667  0.22288000  1.0
  S2-  S117  1  0.41655000  0.90556667  0.22288000  1.0
  S2-  S118  1  0.91655000  0.90556667  0.42288000  1.0
  S2-  S119  1  0.41655000  0.90556667  0.42288000  1.0
  S2-  S120  1  0.91655000  0.90556667  0.62288000  1.0
  S2-  S121  1  0.41655000  0.90556667  0.62288000  1.0
  S2-  S122  1  0.91655000  0.90556667  0.82288000  1.0
  S2-  S123  1  0.41655000  0.90556667  0.82288000  1.0
  S2-  S124  1  0.67880000  0.66666667  0.02262000  1.0
  S2-  S125  1  0.17880000  0.66666667  0.02262000  1.0
  S2-  S126  1  0.67880000  0.66666667  0.22262000  1.0
  S2-  S127  1  0.17880000  0.66666667  0.22262000  1.0
  S2-  S128  1  0.67880000  0.66666667  0.42262000  1.0
  S2-  S129  1  0.17880000  0.66666667  0.42262000  1.0
  S2-  S130  1  0.67880000  0.66666667  0.62262000  1.0
  S2-  S131  1  0.17880000  0.66666667  0.62262000  1.0
  S2-  S132  1  0.67880000  0.66666667  0.82262000  1.0
  S2-  S133  1  0.17880000  0.66666667  0.82262000  1.0
  S2-  S134  1  0.82120000  0.16666667  0.12262000  1.0
  S2-  S135  1  0.32120000  0.16666667  0.12262000  1.0
  S2-  S136  1  0.82120000  0.16666667  0.32262000  1.0
  S2-  S137  1  0.32120000  0.16666667  0.32262000  1.0
  S2-  S138  1  0.82120000  0.16666667  0.52262000  1.0
  S2-  S139  1  0.32120000  0.16666667  0.52262000  1.0
  S2-  S140  1  0.82120000  0.16666667  0.72262000  1.0
  S2-  S141  1  0.32120000  0.16666667  0.72262000  1.0
  S2-  S142  1  0.82120000  0.16666667  0.92262000  1.0
  S2-  S143  1  0.32120000  0.16666667  0.92262000  1.0
  S2-  S144  1  0.83960000  0.66666667  0.12642000  1.0
  S2-  S145  1  0.33960000  0.66666667  0.12642000  1.0
  S2-  S146  1  0.83960000  0.66666667  0.32642000  1.0
  S2-  S147  1  0.33960000  0.66666667  0.32642000  1.0
  S2-  S148  1  0.83960000  0.66666667  0.52642000  1.0
  S2-  S149  1  0.33960000  0.66666667  0.52642000  1.0
  S2-  S150  1  0.83960000  0.66666667  0.72642000  1.0
  S2-  S151  1  0.33960000  0.66666667  0.72642000  1.0
  S2-  S152  1  0.83960000  0.66666667  0.92642000  1.0
  S2-  S153  1  0.33960000  0.66666667  0.92642000  1.0
  S2-  S154  1  0.66040000  0.16666667  0.02642000  1.0
  S2-  S155  1  0.16040000  0.16666667  0.02642000  1.0
  S2-  S156  1  0.66040000  0.16666667  0.22642000  1.0
  S2-  S157  1  0.16040000  0.16666667  0.22642000  1.0
  S2-  S158  1  0.66040000  0.16666667  0.42642000  1.0
  S2-  S159  1  0.16040000  0.16666667  0.42642000  1.0
  S2-  S160  1  0.66040000  0.16666667  0.62642000  1.0
  S2-  S161  1  0.16040000  0.16666667  0.62642000  1.0
  S2-  S162  1  0.66040000  0.16666667  0.82642000  1.0
  S2-  S163  1  0.16040000  0.16666667  0.82642000  1.0
