# generated using pymatgen
data_Li16Sn(SbS5)4
_symmetry_space_group_name_H-M   'P 1'
_cell_length_a   7.97140000
_cell_length_b   13.71832000
_cell_length_c   31.86295000
_cell_angle_alpha   90.00000000
_cell_angle_beta   90.00000000
_cell_angle_gamma   90.00000000
_symmetry_Int_Tables_number   1
_chemical_formula_structural   Li16Sn(SbS5)4
_chemical_formula_sum   'Li64 Sn4 Sb16 S80'
_cell_volume   3484.34791823
_cell_formula_units_Z   4
loop_
 _symmetry_equiv_pos_site_id
 _symmetry_equiv_pos_as_xyz
  1  'x, y, z'
loop_
 _atom_type_symbol
 _atom_type_oxidation_number
  Li+  1.0
  Sn4+  4.0
  Sb5+  5.0
  S2-  -2.0
loop_
 _atom_site_type_symbol
 _atom_site_label
 _atom_site_symmetry_multiplicity
 _atom_site_fract_x
 _atom_site_fract_y
 _atom_site_fract_z
 _atom_site_occupancy
  Li+  Li1  1  0.25410000  0.08850000  0.10200000  1.0
  Li+  Li1  1  0.25410000  0.58850000  0.10200000  1.0
  Li+  Li1  1  0.25410000  0.08850000  0.30200000  1.0
  Li+  Li1  1  0.25410000  0.58850000  0.30200000  1.0
  Li+  Li1  1  0.25410000  0.08850000  0.50200000  1.0
  Li+  Li1  1  0.25410000  0.58850000  0.50200000  1.0
  Li+  Li1  1  0.25410000  0.08850000  0.70200000  1.0
  Li+  Li1  1  0.25410000  0.58850000  0.70200000  1.0
  Li+  Li1  1  0.25410000  0.08850000  0.90200000  1.0
  Li+  Li1  1  0.25410000  0.58850000  0.90200000  1.0
  Li+  Li1  1  0.24590000  0.41150000  0.00200000  1.0
  Li+  Li1  1  0.24590000  0.91150000  0.00200000  1.0
  Li+  Li1  1  0.24590000  0.41150000  0.20200000  1.0
  Li+  Li1  1  0.24590000  0.91150000  0.20200000  1.0
  Li+  Li1  1  0.24590000  0.41150000  0.40200000  1.0
  Li+  Li1  1  0.24590000  0.91150000  0.40200000  1.0
  Li+  Li1  1  0.24590000  0.41150000  0.60200000  1.0
  Li+  Li1  1  0.24590000  0.91150000  0.60200000  1.0
  Li+  Li1  1  0.24590000  0.41150000  0.80200000  1.0
  Li+  Li1  1  0.24590000  0.91150000  0.80200000  1.0
  Li+  Li1  1  0.75410000  0.41150000  0.00200000  1.0
  Li+  Li1  1  0.75410000  0.91150000  0.00200000  1.0
  Li+  Li1  1  0.75410000  0.41150000  0.20200000  1.0
  Li+  Li1  1  0.75410000  0.91150000  0.20200000  1.0
  Li+  Li1  1  0.75410000  0.41150000  0.40200000  1.0
  Li+  Li1  1  0.75410000  0.91150000  0.40200000  1.0
  Li+  Li1  1  0.75410000  0.41150000  0.60200000  1.0
  Li+  Li1  1  0.75410000  0.91150000  0.60200000  1.0
  Li+  Li1  1  0.75410000  0.41150000  0.80200000  1.0
  Li+  Li1  1  0.75410000  0.91150000  0.80200000  1.0
  Li+  Li1  1  0.74590000  0.08850000  0.10200000  1.0
  Li+  Li1  1  0.74590000  0.58850000  0.10200000  1.0
  Li+  Li1  1  0.74590000  0.08850000  0.30200000  1.0
  Li+  Li1  1  0.74590000  0.58850000  0.30200000  1.0
  Li+  Li1  1  0.74590000  0.08850000  0.50200000  1.0
  Li+  Li1  1  0.74590000  0.58850000  0.50200000  1.0
  Li+  Li1  1  0.74590000  0.08850000  0.70200000  1.0
  Li+  Li1  1  0.74590000  0.58850000  0.70200000  1.0
  Li+  Li1  1  0.74590000  0.08850000  0.90200000  1.0
  Li+  Li1  1  0.74590000  0.58850000  0.90200000  1.0
  Li+  Li2  1  0.00000000  0.32760000  0.10140000  1.0
  Li+  Li2  1  0.00000000  0.82760000  0.10140000  1.0
  Li+  Li2  1  0.00000000  0.32760000  0.30140000  1.0
  Li+  Li2  1  0.00000000  0.82760000  0.30140000  1.0
  Li+  Li2  1  0.00000000  0.32760000  0.50140000  1.0
  Li+  Li2  1  0.00000000  0.82760000  0.50140000  1.0
  Li+  Li2  1  0.00000000  0.32760000  0.70140000  1.0
  Li+  Li2  1  0.00000000  0.82760000  0.70140000  1.0
  Li+  Li2  1  0.00000000  0.32760000  0.90140000  1.0
  Li+  Li2  1  0.00000000  0.82760000  0.90140000  1.0
  Li+  Li2  1  0.50000000  0.17240000  0.00140000  1.0
  Li+  Li2  1  0.50000000  0.67240000  0.00140000  1.0
  Li+  Li2  1  0.50000000  0.17240000  0.20140000  1.0
  Li+  Li2  1  0.50000000  0.67240000  0.20140000  1.0
  Li+  Li2  1  0.50000000  0.17240000  0.40140000  1.0
  Li+  Li2  1  0.50000000  0.67240000  0.40140000  1.0
  Li+  Li2  1  0.50000000  0.17240000  0.60140000  1.0
  Li+  Li2  1  0.50000000  0.67240000  0.60140000  1.0
  Li+  Li2  1  0.50000000  0.17240000  0.80140000  1.0
  Li+  Li2  1  0.50000000  0.67240000  0.80140000  1.0
  Li+  Li30  1  0.50000000  0.49404600  0.36092520  1.0
  Li+  Li30  1  0.50000000  0.99404600  0.36092520  1.0
  Li+  Li31  1  0.50000000  0.49404600  0.56092520  1.0
  Li+  Li31  1  0.50000000  0.99404600  0.56092520  1.0
  Sn4+  Sn32  1  0.50000000  0.33717500  0.30000000  1.0
  Sn4+  Sn32  1  0.50000000  0.83717500  0.30000000  1.0
  Sn4+  Sn33  1  0.50000000  0.33717500  0.50000000  1.0
  Sn4+  Sn33  1  0.50000000  0.83717500  0.50000000  1.0
  Sb5+  Sb34  1  0.00000000  0.16282500  0.00000000  1.0
  Sb5+  Sb34  1  0.00000000  0.66282500  0.00000000  1.0
  Sb5+  Sb35  1  0.00000000  0.16282500  0.20000000  1.0
  Sb5+  Sb35  1  0.00000000  0.66282500  0.20000000  1.0
  Sb5+  Sb36  1  0.00000000  0.16282500  0.40000000  1.0
  Sb5+  Sb36  1  0.00000000  0.66282500  0.40000000  1.0
  Sb5+  Sb37  1  0.00000000  0.16282500  0.60000000  1.0
  Sb5+  Sb37  1  0.00000000  0.66282500  0.60000000  1.0
  Sb5+  Sb38  1  0.00000000  0.16282500  0.80000000  1.0
  Sb5+  Sb38  1  0.00000000  0.66282500  0.80000000  1.0
  Sb5+  Sb39  1  0.50000000  0.33717500  0.10000000  1.0
  Sb5+  Sb39  1  0.50000000  0.83717500  0.10000000  1.0
  Sb5+  Sb40  1  0.50000000  0.33717500  0.70000000  1.0
  Sb5+  Sb40  1  0.50000000  0.83717500  0.70000000  1.0
  Sb5+  Sb41  1  0.50000000  0.33717500  0.90000000  1.0
  Sb5+  Sb41  1  0.50000000  0.83717500  0.90000000  1.0
  S2-  S1  1  0.23890000  0.08345000  0.02288000  1.0
  S2-  S1  1  0.23890000  0.58345000  0.02288000  1.0
  S2-  S1  1  0.23890000  0.08345000  0.22288000  1.0
  S2-  S1  1  0.23890000  0.58345000  0.22288000  1.0
  S2-  S1  1  0.23890000  0.08345000  0.42288000  1.0
  S2-  S1  1  0.23890000  0.58345000  0.42288000  1.0
  S2-  S1  1  0.23890000  0.08345000  0.62288000  1.0
  S2-  S1  1  0.23890000  0.58345000  0.62288000  1.0
  S2-  S1  1  0.23890000  0.08345000  0.82288000  1.0
  S2-  S1  1  0.23890000  0.58345000  0.82288000  1.0
  S2-  S1  1  0.26110000  0.41655000  0.12288000  1.0
  S2-  S1  1  0.26110000  0.91655000  0.12288000  1.0
  S2-  S1  1  0.26110000  0.41655000  0.32288000  1.0
  S2-  S1  1  0.26110000  0.91655000  0.32288000  1.0
  S2-  S1  1  0.26110000  0.41655000  0.52288000  1.0
  S2-  S1  1  0.26110000  0.91655000  0.52288000  1.0
  S2-  S1  1  0.26110000  0.41655000  0.72288000  1.0
  S2-  S1  1  0.26110000  0.91655000  0.72288000  1.0
  S2-  S1  1  0.26110000  0.41655000  0.92288000  1.0
  S2-  S1  1  0.26110000  0.91655000  0.92288000  1.0
  S2-  S1  1  0.73890000  0.41655000  0.12288000  1.0
  S2-  S1  1  0.73890000  0.91655000  0.12288000  1.0
  S2-  S1  1  0.73890000  0.41655000  0.32288000  1.0
  S2-  S1  1  0.73890000  0.91655000  0.32288000  1.0
  S2-  S1  1  0.73890000  0.41655000  0.52288000  1.0
  S2-  S1  1  0.73890000  0.91655000  0.52288000  1.0
  S2-  S1  1  0.73890000  0.41655000  0.72288000  1.0
  S2-  S1  1  0.73890000  0.91655000  0.72288000  1.0
  S2-  S1  1  0.73890000  0.41655000  0.92288000  1.0
  S2-  S1  1  0.73890000  0.91655000  0.92288000  1.0
  S2-  S1  1  0.76110000  0.08345000  0.02288000  1.0
  S2-  S1  1  0.76110000  0.58345000  0.02288000  1.0
  S2-  S1  1  0.76110000  0.08345000  0.22288000  1.0
  S2-  S1  1  0.76110000  0.58345000  0.22288000  1.0
  S2-  S1  1  0.76110000  0.08345000  0.42288000  1.0
  S2-  S1  1  0.76110000  0.58345000  0.42288000  1.0
  S2-  S1  1  0.76110000  0.08345000  0.62288000  1.0
  S2-  S1  1  0.76110000  0.58345000  0.62288000  1.0
  S2-  S1  1  0.76110000  0.08345000  0.82288000  1.0
  S2-  S1  1  0.76110000  0.58345000  0.82288000  1.0
  S2-  S2  1  0.00000000  0.32120000  0.02262000  1.0
  S2-  S2  1  0.00000000  0.82120000  0.02262000  1.0
  S2-  S2  1  0.00000000  0.32120000  0.22262000  1.0
  S2-  S2  1  0.00000000  0.82120000  0.22262000  1.0
  S2-  S2  1  0.00000000  0.32120000  0.42262000  1.0
  S2-  S2  1  0.00000000  0.82120000  0.42262000  1.0
  S2-  S2  1  0.00000000  0.32120000  0.62262000  1.0
  S2-  S2  1  0.00000000  0.82120000  0.62262000  1.0
  S2-  S2  1  0.00000000  0.32120000  0.82262000  1.0
  S2-  S2  1  0.00000000  0.82120000  0.82262000  1.0
  S2-  S2  1  0.50000000  0.17880000  0.12262000  1.0
  S2-  S2  1  0.50000000  0.67880000  0.12262000  1.0
  S2-  S2  1  0.50000000  0.17880000  0.32262000  1.0
  S2-  S2  1  0.50000000  0.67880000  0.32262000  1.0
  S2-  S2  1  0.50000000  0.17880000  0.52262000  1.0
  S2-  S2  1  0.50000000  0.67880000  0.52262000  1.0
  S2-  S2  1  0.50000000  0.17880000  0.72262000  1.0
  S2-  S2  1  0.50000000  0.67880000  0.72262000  1.0
  S2-  S2  1  0.50000000  0.17880000  0.92262000  1.0
  S2-  S2  1  0.50000000  0.67880000  0.92262000  1.0
  S2-  S3  1  0.00000000  0.16040000  0.12642000  1.0
  S2-  S3  1  0.00000000  0.66040000  0.12642000  1.0
  S2-  S3  1  0.00000000  0.16040000  0.32642000  1.0
  S2-  S3  1  0.00000000  0.66040000  0.32642000  1.0
  S2-  S3  1  0.00000000  0.16040000  0.52642000  1.0
  S2-  S3  1  0.00000000  0.66040000  0.52642000  1.0
  S2-  S3  1  0.00000000  0.16040000  0.72642000  1.0
  S2-  S3  1  0.00000000  0.66040000  0.72642000  1.0
  S2-  S3  1  0.00000000  0.16040000  0.92642000  1.0
  S2-  S3  1  0.00000000  0.66040000  0.92642000  1.0
  S2-  S3  1  0.50000000  0.33960000  0.02642000  1.0
  S2-  S3  1  0.50000000  0.83960000  0.02642000  1.0
  S2-  S3  1  0.50000000  0.33960000  0.22642000  1.0
  S2-  S3  1  0.50000000  0.83960000  0.22642000  1.0
  S2-  S3  1  0.50000000  0.33960000  0.42642000  1.0
  S2-  S3  1  0.50000000  0.83960000  0.42642000  1.0
  S2-  S3  1  0.50000000  0.33960000  0.62642000  1.0
  S2-  S3  1  0.50000000  0.83960000  0.62642000  1.0
  S2-  S3  1  0.50000000  0.33960000  0.82642000  1.0
  S2-  S3  1  0.50000000  0.83960000  0.82642000  1.0
