# generated using pymatgen
data_LiGa(GeS3)2
_symmetry_space_group_name_H-M   'P 1'
_cell_length_a   13.66160000
_cell_length_b   23.65473394
_cell_length_c   13.74283281
_cell_angle_alpha   81.74771882
_cell_angle_beta   119.80466015
_cell_angle_gamma   106.78438892
_symmetry_Int_Tables_number   1
_chemical_formula_structural   LiGa(GeS3)2
_chemical_formula_sum   'Li16 Ga16 Ge32 S96'
_cell_volume   3689.52649383
_cell_formula_units_Z   16
loop_
 _symmetry_equiv_pos_site_id
 _symmetry_equiv_pos_as_xyz
  1  'x, y, z'
loop_
 _atom_type_symbol
 _atom_type_oxidation_number
  Li+  1.0
  Ga3+  3.0
  Ge4+  4.0
  S2-  -2.0
loop_
 _atom_site_type_symbol
 _atom_site_label
 _atom_site_symmetry_multiplicity
 _atom_site_fract_x
 _atom_site_fract_y
 _atom_site_fract_z
 _atom_site_occupancy
  Li+  Li0  1  0.07360000  0.79730000  0.33190000  1.0
  Li+  Li1  1  0.07360000  0.29730000  0.33190000  1.0
  Li+  Li2  1  0.57360000  0.79730000  0.33190000  1.0
  Li+  Li3  1  0.57360000  0.29730000  0.33190000  1.0
  Li+  Li4  1  0.57360000  0.79730000  0.83190000  1.0
  Li+  Li5  1  0.57544342  0.29856456  0.83393380  1.0
  Li+  Li6  1  0.19611608  0.70750429  0.66576807  1.0
  Li+  Li7  1  0.19440000  0.20270000  0.66810000  1.0
  Li+  Li8  1  0.36670000  0.54730000  0.41810000  1.0
  Li+  Li9  1  0.36670000  0.04730000  0.41810000  1.0
  Li+  Li10  1  0.36670000  0.54730000  0.91810000  1.0
  Li+  Li11  1  0.37139215  0.04541306  0.92223654  1.0
  Li+  Li12  1  0.14744036  0.95122466  0.08337165  1.0
  Li+  Li13  1  0.15179173  0.45145330  0.08318146  1.0
  Li+  Li14  1  0.65130000  0.95270000  0.08190000  1.0
  Li+  Li15  1  0.65130000  0.45270000  0.08190000  1.0
  Ga3+  Ga16  1  0.35777300  0.86272600  0.62382000  1.0
  Ga3+  Ga17  1  0.35780640  0.36080055  0.61951903  1.0
  Ga3+  Ga18  1  0.35895300  0.61272600  0.62618000  1.0
  Ga3+  Ga19  1  0.35895300  0.11272600  0.62618000  1.0
  Ga3+  Ga20  1  0.37432472  0.75133595  0.49743312  1.0
  Ga3+  Ga21  1  0.37770484  0.24420613  0.49495540  1.0
  Ga3+  Ga22  1  0.37650000  0.75000000  0.00000000  1.0
  Ga3+  Ga23  1  0.37650000  0.25000000  0.00000000  1.0
  Ga3+  Ga24  1  0.87650000  0.75000000  0.00000000  1.0
  Ga3+  Ga25  1  0.87650000  0.25000000  0.00000000  1.0
  Ga3+  Ga26  1  0.00150000  0.00000000  0.75000000  1.0
  Ga3+  Ga27  1  0.00150000  0.50000000  0.75000000  1.0
  Ga3+  Ga28  1  0.00150000  0.00000000  0.25000000  1.0
  Ga3+  Ga29  1  0.00150000  0.50000000  0.25000000  1.0
  Ga3+  Ga30  1  0.50150000  0.00000000  0.25000000  1.0
  Ga3+  Ga31  1  0.50192155  0.49788921  0.25056773  1.0
  Ge4+  Ge32  1  0.35777300  0.86272600  0.12382000  1.0
  Ge4+  Ge33  1  0.35777300  0.36272600  0.12382000  1.0
  Ge4+  Ge34  1  0.85777300  0.86272600  0.62382000  1.0
  Ge4+  Ge35  1  0.85777300  0.36272600  0.62382000  1.0
  Ge4+  Ge36  1  0.85021593  0.86530057  0.11935302  1.0
  Ge4+  Ge37  1  0.85777300  0.36272600  0.12382000  1.0
  Ge4+  Ge38  1  0.12122700  0.63727400  0.37618000  1.0
  Ge4+  Ge39  1  0.12122700  0.13727400  0.37618000  1.0
  Ge4+  Ge40  1  0.12122700  0.63727400  0.87618000  1.0
  Ge4+  Ge41  1  0.12097078  0.13457785  0.87786339  1.0
  Ge4+  Ge42  1  0.62122700  0.63727400  0.37618000  1.0
  Ge4+  Ge43  1  0.62389378  0.13805684  0.37280543  1.0
  Ge4+  Ge44  1  0.62122700  0.63727400  0.87618000  1.0
  Ge4+  Ge45  1  0.62122700  0.13727400  0.87618000  1.0
  Ge4+  Ge46  1  0.35530319  0.61339791  0.12555215  1.0
  Ge4+  Ge47  1  0.35895300  0.11272600  0.12618000  1.0
  Ge4+  Ge48  1  0.85895300  0.61272600  0.62618000  1.0
  Ge4+  Ge49  1  0.85895300  0.11272600  0.62618000  1.0
  Ge4+  Ge50  1  0.85895300  0.61272600  0.12618000  1.0
  Ge4+  Ge51  1  0.85895300  0.11272600  0.12618000  1.0
  Ge4+  Ge52  1  0.37004700  0.88727400  0.37382000  1.0
  Ge4+  Ge53  1  0.37004700  0.38727400  0.37382000  1.0
  Ge4+  Ge54  1  0.37004700  0.88727400  0.87382000  1.0
  Ge4+  Ge55  1  0.37004700  0.38727400  0.87382000  1.0
  Ge4+  Ge56  1  0.87369890  0.88837831  0.37252948  1.0
  Ge4+  Ge57  1  0.87004700  0.38727400  0.37382000  1.0
  Ge4+  Ge58  1  0.87241421  0.88742090  0.87404217  1.0
  Ge4+  Ge59  1  0.87004700  0.38727400  0.87382000  1.0
  Ge4+  Ge60  1  0.87647721  0.74702324  0.49571988  1.0
  Ge4+  Ge61  1  0.87650000  0.25000000  0.50000000  1.0
  Ge4+  Ge62  1  0.50150000  0.00000000  0.75000000  1.0
  Ge4+  Ge63  1  0.50150000  0.50000000  0.75000000  1.0
  S2-  S64  1  0.48682500  0.82615000  0.45150000  1.0
  S2-  S65  1  0.48682500  0.32615000  0.45150000  1.0
  S2-  S66  1  0.48682500  0.82615000  0.95150000  1.0
  S2-  S67  1  0.48659724  0.32716221  0.95543542  1.0
  S2-  S68  1  0.98682500  0.82615000  0.45150000  1.0
  S2-  S69  1  0.98682500  0.32615000  0.45150000  1.0
  S2-  S70  1  0.98682500  0.82615000  0.95150000  1.0
  S2-  S71  1  0.98675526  0.32235124  0.95586747  1.0
  S2-  S72  1  0.45697927  0.67800635  0.55091367  1.0
  S2-  S73  1  0.45917500  0.17385000  0.54850000  1.0
  S2-  S74  1  0.45917500  0.67385000  0.04850000  1.0
  S2-  S75  1  0.45652212  0.17559003  0.04766751  1.0
  S2-  S76  1  0.95917500  0.67385000  0.54850000  1.0
  S2-  S77  1  0.95917500  0.17385000  0.54850000  1.0
  S2-  S78  1  0.95727032  0.67446785  0.04640566  1.0
  S2-  S79  1  0.95917500  0.17385000  0.04850000  1.0
  S2-  S80  1  0.16032500  0.57615000  0.29850000  1.0
  S2-  S81  1  0.16032500  0.07615000  0.29850000  1.0
  S2-  S82  1  0.16032500  0.57615000  0.79850000  1.0
  S2-  S83  1  0.16032500  0.07615000  0.79850000  1.0
  S2-  S84  1  0.66028191  0.57334520  0.29210040  1.0
  S2-  S85  1  0.65897475  0.08187590  0.29998493  1.0
  S2-  S86  1  0.66053841  0.57539691  0.79388675  1.0
  S2-  S87  1  0.66032500  0.07615000  0.79850000  1.0
  S2-  S88  1  0.03567500  0.92385000  0.70150000  1.0
  S2-  S89  1  0.03567500  0.42385000  0.70150000  1.0
  S2-  S90  1  0.03567500  0.92385000  0.20150000  1.0
  S2-  S91  1  0.03285025  0.42550881  0.20578974  1.0
  S2-  S92  1  0.53567500  0.92385000  0.70150000  1.0
  S2-  S93  1  0.53567500  0.42385000  0.70150000  1.0
  S2-  S94  1  0.53328369  0.92338613  0.20436406  1.0
  S2-  S95  1  0.53567500  0.42385000  0.20150000  1.0
  S2-  S96  1  0.24905500  0.87962000  0.44249000  1.0
  S2-  S97  1  0.24905500  0.37962000  0.44249000  1.0
  S2-  S98  1  0.24905500  0.87962000  0.94249000  1.0
  S2-  S99  1  0.24905500  0.37962000  0.94249000  1.0
  S2-  S100  1  0.74905500  0.87962000  0.44249000  1.0
  S2-  S101  1  0.74905500  0.37962000  0.44249000  1.0
  S2-  S102  1  0.74905500  0.87962000  0.94249000  1.0
  S2-  S103  1  0.74905500  0.37962000  0.94249000  1.0
  S2-  S104  1  0.17694500  0.62038000  0.55751000  1.0
  S2-  S105  1  0.17812696  0.11773482  0.55084033  1.0
  S2-  S106  1  0.17694500  0.62038000  0.05751000  1.0
  S2-  S107  1  0.17694500  0.12038000  0.05751000  1.0
  S2-  S108  1  0.67694500  0.62038000  0.55751000  1.0
  S2-  S109  1  0.67694500  0.12038000  0.55751000  1.0
  S2-  S110  1  0.67694500  0.62038000  0.05751000  1.0
  S2-  S111  1  0.67694500  0.12038000  0.05751000  1.0
  S2-  S112  1  0.43156500  0.62962000  0.30751000  1.0
  S2-  S113  1  0.43156500  0.12962000  0.30751000  1.0
  S2-  S114  1  0.43156500  0.62962000  0.80751000  1.0
  S2-  S115  1  0.43156500  0.12962000  0.80751000  1.0
  S2-  S116  1  0.93156500  0.62962000  0.30751000  1.0
  S2-  S117  1  0.92997433  0.12973005  0.30708578  1.0
  S2-  S118  1  0.93407923  0.62480994  0.80674769  1.0
  S2-  S119  1  0.92998026  0.12876757  0.80507336  1.0
  S2-  S120  1  0.24443500  0.87038000  0.69249000  1.0
  S2-  S121  1  0.24443500  0.37038000  0.69249000  1.0
  S2-  S122  1  0.24443500  0.87038000  0.19249000  1.0
  S2-  S123  1  0.24443500  0.37038000  0.19249000  1.0
  S2-  S124  1  0.74443500  0.87038000  0.69249000  1.0
  S2-  S125  1  0.74208421  0.37338672  0.69151278  1.0
  S2-  S126  1  0.74112825  0.86984272  0.19193997  1.0
  S2-  S127  1  0.74333244  0.37384018  0.19521466  1.0
  S2-  S128  1  0.48045096  0.97625503  0.40683287  1.0
  S2-  S129  1  0.48170000  0.47961000  0.40579000  1.0
  S2-  S130  1  0.48170000  0.97961000  0.90579000  1.0
  S2-  S131  1  0.48170000  0.47961000  0.90579000  1.0
  S2-  S132  1  0.98170000  0.97961000  0.40579000  1.0
  S2-  S133  1  0.98170000  0.47961000  0.40579000  1.0
  S2-  S134  1  0.98170000  0.97961000  0.90579000  1.0
  S2-  S135  1  0.97771092  0.47687889  0.90698289  1.0
  S2-  S136  1  0.34630000  0.52039000  0.59421000  1.0
  S2-  S137  1  0.34700712  0.02336057  0.59395494  1.0
  S2-  S138  1  0.34630000  0.52039000  0.09421000  1.0
  S2-  S139  1  0.34630000  0.02039000  0.09421000  1.0
  S2-  S140  1  0.84792629  0.52364366  0.59431424  1.0
  S2-  S141  1  0.84630000  0.02039000  0.59421000  1.0
  S2-  S142  1  0.84630000  0.52039000  0.09421000  1.0
  S2-  S143  1  0.84630000  0.02039000  0.09421000  1.0
  S2-  S144  1  0.20091000  0.72961000  0.34421000  1.0
  S2-  S145  1  0.20091000  0.22961000  0.34421000  1.0
  S2-  S146  1  0.19981412  0.73008195  0.84432176  1.0
  S2-  S147  1  0.20091000  0.22961000  0.84421000  1.0
  S2-  S148  1  0.70091000  0.72961000  0.34421000  1.0
  S2-  S149  1  0.70645250  0.22982642  0.34472307  1.0
  S2-  S150  1  0.70091000  0.72961000  0.84421000  1.0
  S2-  S151  1  0.70091000  0.22961000  0.84421000  1.0
  S2-  S152  1  0.37503353  0.76951629  0.65862786  1.0
  S2-  S153  1  0.37709000  0.27039000  0.65579000  1.0
  S2-  S154  1  0.37709000  0.77039000  0.15579000  1.0
  S2-  S155  1  0.37709000  0.27039000  0.15579000  1.0
  S2-  S156  1  0.87709000  0.77039000  0.65579000  1.0
  S2-  S157  1  0.87709000  0.27039000  0.65579000  1.0
  S2-  S158  1  0.87709000  0.77039000  0.15579000  1.0
  S2-  S159  1  0.87709000  0.27039000  0.15579000  1.0
