# generated using pymatgen
data_LiGa(GeS3)2
_symmetry_space_group_name_H-M   'P 1'
_cell_length_a   13.83825749
_cell_length_b   13.75646063
_cell_length_c   23.81898286
_cell_angle_alpha   106.78438892
_cell_angle_beta   98.25228118
_cell_angle_gamma   60.19533985
_symmetry_Int_Tables_number   1
_chemical_formula_structural   LiGa(GeS3)2
_chemical_formula_sum   'Li16 Ga16 Ge32 S96'
_cell_volume   3766.91712907
_cell_formula_units_Z   16
loop_
 _symmetry_equiv_pos_site_id
 _symmetry_equiv_pos_as_xyz
  1  'x, y, z'
loop_
 _atom_type_symbol
 _atom_type_oxidation_number
  Li+  1.0
  Ga3+  3.0
  Ge4+  4.0
  S2-  -2.0
loop_
 _atom_site_type_symbol
 _atom_site_label
 _atom_site_symmetry_multiplicity
 _atom_site_fract_x
 _atom_site_fract_y
 _atom_site_fract_z
 _atom_site_occupancy
  Li+  Li0  1  0.58190000  0.59306667  0.20270000  1.0
  Li+  Li1  1  0.58190000  0.59306667  0.70270000  1.0
  Li+  Li2  1  0.58190000  0.09306667  0.20270000  1.0
  Li+  Li3  1  0.58190000  0.09306667  0.70270000  1.0
  Li+  Li4  1  0.08190000  0.09306667  0.20270000  1.0
  Li+  Li5  1  0.08190000  0.09306667  0.70270000  1.0
  Li+  Li6  1  0.91810000  0.47226667  0.29730000  1.0
  Li+  Li7  1  0.91810000  0.47226667  0.79730000  1.0
  Li+  Li8  1  0.66810000  0.29996667  0.45270000  1.0
  Li+  Li9  1  0.66810000  0.29996667  0.95270000  1.0
  Li+  Li10  1  0.16810000  0.29996667  0.45270000  1.0
  Li+  Li11  1  0.16810000  0.29996667  0.95270000  1.0
  Li+  Li12  1  0.33190000  0.51536667  0.04730000  1.0
  Li+  Li13  1  0.33190000  0.51536667  0.54730000  1.0
  Li+  Li14  1  0.33190000  0.01536667  0.04730000  1.0
  Li+  Li15  1  0.33190000  0.01536667  0.54730000  1.0
  Ga3+  Ga16  1  0.87382000  0.30889367  0.13727400  1.0
  Ga3+  Ga17  1  0.87382000  0.30889367  0.63727400  1.0
  Ga3+  Ga18  1  0.87618000  0.30771367  0.38727400  1.0
  Ga3+  Ga19  1  0.87618000  0.30771367  0.88727400  1.0
  Ga3+  Ga20  1  0.75000000  0.29016667  0.25000000  1.0
  Ga3+  Ga21  1  0.75000000  0.29016667  0.75000000  1.0
  Ga3+  Ga22  1  0.25000000  0.29016667  0.25000000  1.0
  Ga3+  Ga23  1  0.25000000  0.29016667  0.75000000  1.0
  Ga3+  Ga24  1  0.25000000  0.79016667  0.25000000  1.0
  Ga3+  Ga25  1  0.25000000  0.79016667  0.75000000  1.0
  Ga3+  Ga26  1  0.00000000  0.66516667  0.00000000  1.0
  Ga3+  Ga27  1  0.00000000  0.66516667  0.50000000  1.0
  Ga3+  Ga28  1  0.50000000  0.66516667  0.00000000  1.0
  Ga3+  Ga29  1  0.50000000  0.66516667  0.50000000  1.0
  Ga3+  Ga30  1  0.50000000  0.16516667  0.00000000  1.0
  Ga3+  Ga31  1  0.50000000  0.16516667  0.50000000  1.0
  Ge4+  Ge32  1  0.37382000  0.30889367  0.13727400  1.0
  Ge4+  Ge33  1  0.37382000  0.30889367  0.63727400  1.0
  Ge4+  Ge34  1  0.87382000  0.80889367  0.13727400  1.0
  Ge4+  Ge35  1  0.87382000  0.80889367  0.63727400  1.0
  Ge4+  Ge36  1  0.37382000  0.80889367  0.13727400  1.0
  Ge4+  Ge37  1  0.37382000  0.80889367  0.63727400  1.0
  Ge4+  Ge38  1  0.62618000  0.54543967  0.36272600  1.0
  Ge4+  Ge39  1  0.62618000  0.54543967  0.86272600  1.0
  Ge4+  Ge40  1  0.12618000  0.54543967  0.36272600  1.0
  Ge4+  Ge41  1  0.12618000  0.54543967  0.86272600  1.0
  Ge4+  Ge42  1  0.62618000  0.04543967  0.36272600  1.0
  Ge4+  Ge43  1  0.62618000  0.04543967  0.86272600  1.0
  Ge4+  Ge44  1  0.12618000  0.04543967  0.36272600  1.0
  Ge4+  Ge45  1  0.12618000  0.04543967  0.86272600  1.0
  Ge4+  Ge46  1  0.37618000  0.30771367  0.38727400  1.0
  Ge4+  Ge47  1  0.37618000  0.30771367  0.88727400  1.0
  Ge4+  Ge48  1  0.87618000  0.80771367  0.38727400  1.0
  Ge4+  Ge49  1  0.87618000  0.80771367  0.88727400  1.0
  Ge4+  Ge50  1  0.37618000  0.80771367  0.38727400  1.0
  Ge4+  Ge51  1  0.37618000  0.80771367  0.88727400  1.0
  Ge4+  Ge52  1  0.62382000  0.29661967  0.11272600  1.0
  Ge4+  Ge53  1  0.62382000  0.29661967  0.61272600  1.0
  Ge4+  Ge54  1  0.12382000  0.29661967  0.11272600  1.0
  Ge4+  Ge55  1  0.12382000  0.29661967  0.61272600  1.0
  Ge4+  Ge56  1  0.62382000  0.79661967  0.11272600  1.0
  Ge4+  Ge57  1  0.62382000  0.79661967  0.61272600  1.0
  Ge4+  Ge58  1  0.12382000  0.79661967  0.11272600  1.0
  Ge4+  Ge59  1  0.12382000  0.79661967  0.61272600  1.0
  Ge4+  Ge60  1  0.75000000  0.79016667  0.25000000  1.0
  Ge4+  Ge61  1  0.75000000  0.79016667  0.75000000  1.0
  Ge4+  Ge62  1  0.00000000  0.16516667  0.00000000  1.0
  Ge4+  Ge63  1  0.00000000  0.16516667  0.50000000  1.0
  S2-  S64  1  0.70150000  0.17984167  0.17385000  1.0
  S2-  S65  1  0.70150000  0.17984167  0.67385000  1.0
  S2-  S66  1  0.20150000  0.17984167  0.17385000  1.0
  S2-  S67  1  0.20150000  0.17984167  0.67385000  1.0
  S2-  S68  1  0.70150000  0.67984167  0.17385000  1.0
  S2-  S69  1  0.70150000  0.67984167  0.67385000  1.0
  S2-  S70  1  0.20150000  0.67984167  0.17385000  1.0
  S2-  S71  1  0.20150000  0.67984167  0.67385000  1.0
  S2-  S72  1  0.79850000  0.20749167  0.32615000  1.0
  S2-  S73  1  0.79850000  0.20749167  0.82615000  1.0
  S2-  S74  1  0.29850000  0.20749167  0.32615000  1.0
  S2-  S75  1  0.29850000  0.20749167  0.82615000  1.0
  S2-  S76  1  0.79850000  0.70749167  0.32615000  1.0
  S2-  S77  1  0.79850000  0.70749167  0.82615000  1.0
  S2-  S78  1  0.29850000  0.70749167  0.32615000  1.0
  S2-  S79  1  0.29850000  0.70749167  0.82615000  1.0
  S2-  S80  1  0.54850000  0.50634167  0.42385000  1.0
  S2-  S81  1  0.54850000  0.50634167  0.92385000  1.0
  S2-  S82  1  0.04850000  0.50634167  0.42385000  1.0
  S2-  S83  1  0.04850000  0.50634167  0.92385000  1.0
  S2-  S84  1  0.54850000  0.00634167  0.42385000  1.0
  S2-  S85  1  0.54850000  0.00634167  0.92385000  1.0
  S2-  S86  1  0.04850000  0.00634167  0.42385000  1.0
  S2-  S87  1  0.04850000  0.00634167  0.92385000  1.0
  S2-  S88  1  0.95150000  0.63099167  0.07615000  1.0
  S2-  S89  1  0.95150000  0.63099167  0.57615000  1.0
  S2-  S90  1  0.45150000  0.63099167  0.07615000  1.0
  S2-  S91  1  0.45150000  0.63099167  0.57615000  1.0
  S2-  S92  1  0.95150000  0.13099167  0.07615000  1.0
  S2-  S93  1  0.95150000  0.13099167  0.57615000  1.0
  S2-  S94  1  0.45150000  0.13099167  0.07615000  1.0
  S2-  S95  1  0.45150000  0.13099167  0.57615000  1.0
  S2-  S96  1  0.69249000  0.41761167  0.12038000  1.0
  S2-  S97  1  0.69249000  0.41761167  0.62038000  1.0
  S2-  S98  1  0.19249000  0.41761167  0.12038000  1.0
  S2-  S99  1  0.19249000  0.41761167  0.62038000  1.0
  S2-  S100  1  0.69249000  0.91761167  0.12038000  1.0
  S2-  S101  1  0.69249000  0.91761167  0.62038000  1.0
  S2-  S102  1  0.19249000  0.91761167  0.12038000  1.0
  S2-  S103  1  0.19249000  0.91761167  0.62038000  1.0
  S2-  S104  1  0.80751000  0.48972167  0.37962000  1.0
  S2-  S105  1  0.80751000  0.48972167  0.87962000  1.0
  S2-  S106  1  0.30751000  0.48972167  0.37962000  1.0
  S2-  S107  1  0.30751000  0.48972167  0.87962000  1.0
  S2-  S108  1  0.80751000  0.98972167  0.37962000  1.0
  S2-  S109  1  0.80751000  0.98972167  0.87962000  1.0
  S2-  S110  1  0.30751000  0.98972167  0.37962000  1.0
  S2-  S111  1  0.30751000  0.98972167  0.87962000  1.0
  S2-  S112  1  0.55751000  0.23510167  0.37038000  1.0
  S2-  S113  1  0.55751000  0.23510167  0.87038000  1.0
  S2-  S114  1  0.05751000  0.23510167  0.37038000  1.0
  S2-  S115  1  0.05751000  0.23510167  0.87038000  1.0
  S2-  S116  1  0.55751000  0.73510167  0.37038000  1.0
  S2-  S117  1  0.55751000  0.73510167  0.87038000  1.0
  S2-  S118  1  0.05751000  0.73510167  0.37038000  1.0
  S2-  S119  1  0.05751000  0.73510167  0.87038000  1.0
  S2-  S120  1  0.94249000  0.42223167  0.12962000  1.0
  S2-  S121  1  0.94249000  0.42223167  0.62962000  1.0
  S2-  S122  1  0.44249000  0.42223167  0.12962000  1.0
  S2-  S123  1  0.44249000  0.42223167  0.62962000  1.0
  S2-  S124  1  0.94249000  0.92223167  0.12962000  1.0
  S2-  S125  1  0.94249000  0.92223167  0.62962000  1.0
  S2-  S126  1  0.44249000  0.92223167  0.12962000  1.0
  S2-  S127  1  0.44249000  0.92223167  0.62962000  1.0
  S2-  S128  1  0.65579000  0.18496667  0.02039000  1.0
  S2-  S129  1  0.65579000  0.18496667  0.52039000  1.0
  S2-  S130  1  0.15579000  0.18496667  0.02039000  1.0
  S2-  S131  1  0.15579000  0.18496667  0.52039000  1.0
  S2-  S132  1  0.65579000  0.68496667  0.02039000  1.0
  S2-  S133  1  0.65579000  0.68496667  0.52039000  1.0
  S2-  S134  1  0.15579000  0.68496667  0.02039000  1.0
  S2-  S135  1  0.15579000  0.68496667  0.52039000  1.0
  S2-  S136  1  0.84421000  0.32036667  0.47961000  1.0
  S2-  S137  1  0.84421000  0.32036667  0.97961000  1.0
  S2-  S138  1  0.34421000  0.32036667  0.47961000  1.0
  S2-  S139  1  0.34421000  0.32036667  0.97961000  1.0
  S2-  S140  1  0.84421000  0.82036667  0.47961000  1.0
  S2-  S141  1  0.84421000  0.82036667  0.97961000  1.0
  S2-  S142  1  0.34421000  0.82036667  0.47961000  1.0
  S2-  S143  1  0.34421000  0.82036667  0.97961000  1.0
  S2-  S144  1  0.59421000  0.46575667  0.27039000  1.0
  S2-  S145  1  0.59421000  0.46575667  0.77039000  1.0
  S2-  S146  1  0.09421000  0.46575667  0.27039000  1.0
  S2-  S147  1  0.09421000  0.46575667  0.77039000  1.0
  S2-  S148  1  0.59421000  0.96575667  0.27039000  1.0
  S2-  S149  1  0.59421000  0.96575667  0.77039000  1.0
  S2-  S150  1  0.09421000  0.96575667  0.27039000  1.0
  S2-  S151  1  0.09421000  0.96575667  0.77039000  1.0
  S2-  S152  1  0.90579000  0.28957667  0.22961000  1.0
  S2-  S153  1  0.90579000  0.28957667  0.72961000  1.0
  S2-  S154  1  0.40579000  0.28957667  0.22961000  1.0
  S2-  S155  1  0.40579000  0.28957667  0.72961000  1.0
  S2-  S156  1  0.90579000  0.78957667  0.22961000  1.0
  S2-  S157  1  0.90579000  0.78957667  0.72961000  1.0
  S2-  S158  1  0.40579000  0.78957667  0.22961000  1.0
  S2-  S159  1  0.40579000  0.78957667  0.72961000  1.0
