# generated using pymatgen
data_LiGa(GeS3)2
_symmetry_space_group_name_H-M   'P 1'
_cell_length_a   13.66160000
_cell_length_b   13.74283281
_cell_length_c   23.65473394
_cell_angle_alpha   81.74771882
_cell_angle_beta   73.21561108
_cell_angle_gamma   60.19533985
_symmetry_Int_Tables_number   1
_chemical_formula_structural   LiGa(GeS3)2
_chemical_formula_sum   'Li16 Ga16 Ge32 S96'
_cell_volume   3689.52649383
_cell_formula_units_Z   16
loop_
 _symmetry_equiv_pos_site_id
 _symmetry_equiv_pos_as_xyz
  1  'x, y, z'
loop_
 _atom_type_symbol
 _atom_type_oxidation_number
  Li+  1.0
  Ga3+  3.0
  Ge4+  4.0
  S2-  -2.0
loop_
 _atom_site_type_symbol
 _atom_site_label
 _atom_site_symmetry_multiplicity
 _atom_site_fract_x
 _atom_site_fract_y
 _atom_site_fract_z
 _atom_site_occupancy
  Li+  Li0  1  0.07360000  0.41810000  0.20270000  1.0
  Li+  Li0  1  0.07360000  0.41810000  0.70270000  1.0
  Li+  Li1  1  0.57360000  0.41810000  0.20270000  1.0
  Li+  Li1  1  0.57360000  0.41810000  0.70270000  1.0
  Li+  Li2  1  0.57360000  0.91810000  0.20270000  1.0
  Li+  Li2  1  0.57360000  0.91810000  0.70270000  1.0
  Li+  Li3  1  0.19440000  0.08190000  0.29730000  1.0
  Li+  Li3  1  0.19440000  0.08190000  0.79730000  1.0
  Li+  Li4  1  0.36670000  0.33190000  0.45270000  1.0
  Li+  Li4  1  0.36670000  0.33190000  0.95270000  1.0
  Li+  Li5  1  0.36670000  0.83190000  0.45270000  1.0
  Li+  Li5  1  0.36670000  0.83190000  0.95270000  1.0
  Li+  Li6  1  0.15130000  0.66810000  0.04730000  1.0
  Li+  Li6  1  0.15130000  0.66810000  0.54730000  1.0
  Li+  Li7  1  0.65130000  0.66810000  0.04730000  1.0
  Li+  Li7  1  0.65130000  0.66810000  0.54730000  1.0
  Ga3+  Ga8  1  0.35777300  0.12618000  0.13727400  1.0
  Ga3+  Ga8  1  0.35777300  0.12618000  0.63727400  1.0
  Ga3+  Ga9  1  0.35895300  0.12382000  0.38727400  1.0
  Ga3+  Ga9  1  0.35895300  0.12382000  0.88727400  1.0
  Ga3+  Ga10  1  0.37650000  0.25000000  0.25000000  1.0
  Ga3+  Ga10  1  0.37650000  0.25000000  0.75000000  1.0
  Ga3+  Ga11  1  0.37650000  0.75000000  0.25000000  1.0
  Ga3+  Ga11  1  0.37650000  0.75000000  0.75000000  1.0
  Ga3+  Ga12  1  0.87650000  0.75000000  0.25000000  1.0
  Ga3+  Ga12  1  0.87650000  0.75000000  0.75000000  1.0
  Ga3+  Ga13  1  0.00150000  0.00000000  0.00000000  1.0
  Ga3+  Ga13  1  0.00150000  0.00000000  0.50000000  1.0
  Ga3+  Ga14  1  0.00150000  0.50000000  0.00000000  1.0
  Ga3+  Ga14  1  0.00150000  0.50000000  0.50000000  1.0
  Ga3+  Ga15  1  0.50150000  0.50000000  0.00000000  1.0
  Ga3+  Ga15  1  0.50150000  0.50000000  0.50000000  1.0
  Ge4+  Ge16  1  0.35777300  0.62618000  0.13727400  1.0
  Ge4+  Ge16  1  0.35777300  0.62618000  0.63727400  1.0
  Ge4+  Ge17  1  0.85777300  0.12618000  0.13727400  1.0
  Ge4+  Ge17  1  0.85777300  0.12618000  0.63727400  1.0
  Ge4+  Ge18  1  0.85777300  0.62618000  0.13727400  1.0
  Ge4+  Ge18  1  0.85777300  0.62618000  0.63727400  1.0
  Ge4+  Ge19  1  0.12122700  0.37382000  0.36272600  1.0
  Ge4+  Ge19  1  0.12122700  0.37382000  0.86272600  1.0
  Ge4+  Ge20  1  0.12122700  0.87382000  0.36272600  1.0
  Ge4+  Ge20  1  0.12122700  0.87382000  0.86272600  1.0
  Ge4+  Ge21  1  0.62122700  0.37382000  0.36272600  1.0
  Ge4+  Ge21  1  0.62122700  0.37382000  0.86272600  1.0
  Ge4+  Ge22  1  0.62122700  0.87382000  0.36272600  1.0
  Ge4+  Ge22  1  0.62122700  0.87382000  0.86272600  1.0
  Ge4+  Ge23  1  0.35895300  0.62382000  0.38727400  1.0
  Ge4+  Ge23  1  0.35895300  0.62382000  0.88727400  1.0
  Ge4+  Ge24  1  0.85895300  0.12382000  0.38727400  1.0
  Ge4+  Ge24  1  0.85895300  0.12382000  0.88727400  1.0
  Ge4+  Ge25  1  0.85895300  0.62382000  0.38727400  1.0
  Ge4+  Ge25  1  0.85895300  0.62382000  0.88727400  1.0
  Ge4+  Ge26  1  0.37004700  0.37618000  0.11272600  1.0
  Ge4+  Ge26  1  0.37004700  0.37618000  0.61272600  1.0
  Ge4+  Ge27  1  0.37004700  0.87618000  0.11272600  1.0
  Ge4+  Ge27  1  0.37004700  0.87618000  0.61272600  1.0
  Ge4+  Ge28  1  0.87004700  0.37618000  0.11272600  1.0
  Ge4+  Ge28  1  0.87004700  0.37618000  0.61272600  1.0
  Ge4+  Ge29  1  0.87004700  0.87618000  0.11272600  1.0
  Ge4+  Ge29  1  0.87004700  0.87618000  0.61272600  1.0
  Ge4+  Ge30  1  0.87650000  0.25000000  0.25000000  1.0
  Ge4+  Ge30  1  0.87650000  0.25000000  0.75000000  1.0
  Ge4+  Ge31  1  0.50150000  0.00000000  0.00000000  1.0
  Ge4+  Ge31  1  0.50150000  0.00000000  0.50000000  1.0
  S2-  S1  1  0.48682500  0.29850000  0.17385000  1.0
  S2-  S1  1  0.48682500  0.29850000  0.67385000  1.0
  S2-  S1  1  0.48682500  0.79850000  0.17385000  1.0
  S2-  S1  1  0.48682500  0.79850000  0.67385000  1.0
  S2-  S1  1  0.98682500  0.29850000  0.17385000  1.0
  S2-  S1  1  0.98682500  0.29850000  0.67385000  1.0
  S2-  S1  1  0.98682500  0.79850000  0.17385000  1.0
  S2-  S1  1  0.98682500  0.79850000  0.67385000  1.0
  S2-  S1  1  0.45917500  0.20150000  0.32615000  1.0
  S2-  S1  1  0.45917500  0.20150000  0.82615000  1.0
  S2-  S1  1  0.45917500  0.70150000  0.32615000  1.0
  S2-  S1  1  0.45917500  0.70150000  0.82615000  1.0
  S2-  S1  1  0.95917500  0.20150000  0.32615000  1.0
  S2-  S1  1  0.95917500  0.20150000  0.82615000  1.0
  S2-  S1  1  0.95917500  0.70150000  0.32615000  1.0
  S2-  S1  1  0.95917500  0.70150000  0.82615000  1.0
  S2-  S1  1  0.16032500  0.45150000  0.42385000  1.0
  S2-  S1  1  0.16032500  0.45150000  0.92385000  1.0
  S2-  S1  1  0.16032500  0.95150000  0.42385000  1.0
  S2-  S1  1  0.16032500  0.95150000  0.92385000  1.0
  S2-  S1  1  0.66032500  0.45150000  0.42385000  1.0
  S2-  S1  1  0.66032500  0.45150000  0.92385000  1.0
  S2-  S1  1  0.66032500  0.95150000  0.42385000  1.0
  S2-  S1  1  0.66032500  0.95150000  0.92385000  1.0
  S2-  S1  1  0.03567500  0.04850000  0.07615000  1.0
  S2-  S1  1  0.03567500  0.04850000  0.57615000  1.0
  S2-  S1  1  0.03567500  0.54850000  0.07615000  1.0
  S2-  S1  1  0.03567500  0.54850000  0.57615000  1.0
  S2-  S1  1  0.53567500  0.04850000  0.07615000  1.0
  S2-  S1  1  0.53567500  0.04850000  0.57615000  1.0
  S2-  S1  1  0.53567500  0.54850000  0.07615000  1.0
  S2-  S1  1  0.53567500  0.54850000  0.57615000  1.0
  S2-  S2  1  0.24905500  0.30751000  0.12038000  1.0
  S2-  S2  1  0.24905500  0.30751000  0.62038000  1.0
  S2-  S2  1  0.24905500  0.80751000  0.12038000  1.0
  S2-  S2  1  0.24905500  0.80751000  0.62038000  1.0
  S2-  S2  1  0.74905500  0.30751000  0.12038000  1.0
  S2-  S2  1  0.74905500  0.30751000  0.62038000  1.0
  S2-  S2  1  0.74905500  0.80751000  0.12038000  1.0
  S2-  S2  1  0.74905500  0.80751000  0.62038000  1.0
  S2-  S2  1  0.17694500  0.19249000  0.37962000  1.0
  S2-  S2  1  0.17694500  0.19249000  0.87962000  1.0
  S2-  S2  1  0.17694500  0.69249000  0.37962000  1.0
  S2-  S2  1  0.17694500  0.69249000  0.87962000  1.0
  S2-  S2  1  0.67694500  0.19249000  0.37962000  1.0
  S2-  S2  1  0.67694500  0.19249000  0.87962000  1.0
  S2-  S2  1  0.67694500  0.69249000  0.37962000  1.0
  S2-  S2  1  0.67694500  0.69249000  0.87962000  1.0
  S2-  S2  1  0.43156500  0.44249000  0.37038000  1.0
  S2-  S2  1  0.43156500  0.44249000  0.87038000  1.0
  S2-  S2  1  0.43156500  0.94249000  0.37038000  1.0
  S2-  S2  1  0.43156500  0.94249000  0.87038000  1.0
  S2-  S2  1  0.93156500  0.44249000  0.37038000  1.0
  S2-  S2  1  0.93156500  0.44249000  0.87038000  1.0
  S2-  S2  1  0.93156500  0.94249000  0.37038000  1.0
  S2-  S2  1  0.93156500  0.94249000  0.87038000  1.0
  S2-  S2  1  0.24443500  0.05751000  0.12962000  1.0
  S2-  S2  1  0.24443500  0.05751000  0.62962000  1.0
  S2-  S2  1  0.24443500  0.55751000  0.12962000  1.0
  S2-  S2  1  0.24443500  0.55751000  0.62962000  1.0
  S2-  S2  1  0.74443500  0.05751000  0.12962000  1.0
  S2-  S2  1  0.74443500  0.05751000  0.62962000  1.0
  S2-  S2  1  0.74443500  0.55751000  0.12962000  1.0
  S2-  S2  1  0.74443500  0.55751000  0.62962000  1.0
  S2-  S3  1  0.48170000  0.34421000  0.02039000  1.0
  S2-  S3  1  0.48170000  0.34421000  0.52039000  1.0
  S2-  S3  1  0.48170000  0.84421000  0.02039000  1.0
  S2-  S3  1  0.48170000  0.84421000  0.52039000  1.0
  S2-  S3  1  0.98170000  0.34421000  0.02039000  1.0
  S2-  S3  1  0.98170000  0.34421000  0.52039000  1.0
  S2-  S3  1  0.98170000  0.84421000  0.02039000  1.0
  S2-  S3  1  0.98170000  0.84421000  0.52039000  1.0
  S2-  S3  1  0.34630000  0.15579000  0.47961000  1.0
  S2-  S3  1  0.34630000  0.15579000  0.97961000  1.0
  S2-  S3  1  0.34630000  0.65579000  0.47961000  1.0
  S2-  S3  1  0.34630000  0.65579000  0.97961000  1.0
  S2-  S3  1  0.84630000  0.15579000  0.47961000  1.0
  S2-  S3  1  0.84630000  0.15579000  0.97961000  1.0
  S2-  S3  1  0.84630000  0.65579000  0.47961000  1.0
  S2-  S3  1  0.84630000  0.65579000  0.97961000  1.0
  S2-  S3  1  0.20091000  0.40579000  0.27039000  1.0
  S2-  S3  1  0.20091000  0.40579000  0.77039000  1.0
  S2-  S3  1  0.20091000  0.90579000  0.27039000  1.0
  S2-  S3  1  0.20091000  0.90579000  0.77039000  1.0
  S2-  S3  1  0.70091000  0.40579000  0.27039000  1.0
  S2-  S3  1  0.70091000  0.40579000  0.77039000  1.0
  S2-  S3  1  0.70091000  0.90579000  0.27039000  1.0
  S2-  S3  1  0.70091000  0.90579000  0.77039000  1.0
  S2-  S3  1  0.37709000  0.09421000  0.22961000  1.0
  S2-  S3  1  0.37709000  0.09421000  0.72961000  1.0
  S2-  S3  1  0.37709000  0.59421000  0.22961000  1.0
  S2-  S3  1  0.37709000  0.59421000  0.72961000  1.0
  S2-  S3  1  0.87709000  0.09421000  0.22961000  1.0
  S2-  S3  1  0.87709000  0.09421000  0.72961000  1.0
  S2-  S3  1  0.87709000  0.59421000  0.22961000  1.0
  S2-  S3  1  0.87709000  0.59421000  0.72961000  1.0
