# generated using pymatgen
data_LiVPO4F
_symmetry_space_group_name_H-M   'P 1'
_cell_length_a   10.33776000
_cell_length_b   21.87219414
_cell_length_c   10.61882000
_cell_angle_alpha   71.07899750
_cell_angle_beta   81.66400000
_cell_angle_gamma   107.17107642
_symmetry_Int_Tables_number   1
_chemical_formula_structural   LiVPO4F
_chemical_formula_sum   'Li24 V24 P24 O96 F24'
_cell_volume   2091.66680667
_cell_formula_units_Z   24
loop_
 _symmetry_equiv_pos_site_id
 _symmetry_equiv_pos_as_xyz
  1  'x, y, z'
loop_
 _atom_type_symbol
 _atom_type_oxidation_number
  Li+  1.0
  V3+  3.0
  P5+  5.0
  O2-  -2.0
  F-  -1.0
loop_
 _atom_site_type_symbol
 _atom_site_label
 _atom_site_symmetry_multiplicity
 _atom_site_fract_x
 _atom_site_fract_y
 _atom_site_fract_z
 _atom_site_occupancy
  Li+  Li0  1  0.24150000  0.92133333  0.68150000  1.0
  Li+  Li1  1  0.24477235  0.58760962  0.68002534  1.0
  Li+  Li2  1  0.24150000  0.25466667  0.68150000  1.0
  Li+  Li3  1  0.24440069  0.91968810  0.18290893  1.0
  Li+  Li4  1  0.24150000  0.58800000  0.18150000  1.0
  Li+  Li5  1  0.24622793  0.25424285  0.18340613  1.0
  Li+  Li6  1  0.74150000  0.92133333  0.68150000  1.0
  Li+  Li7  1  0.73960738  0.58675564  0.68089015  1.0
  Li+  Li8  1  0.74150000  0.25466667  0.68150000  1.0
  Li+  Li9  1  0.74150000  0.92133333  0.18150000  1.0
  Li+  Li10  1  0.74150000  0.58800000  0.18150000  1.0
  Li+  Li11  1  0.74150000  0.25466667  0.18150000  1.0
  Li+  Li12  1  0.25850000  0.74533333  0.31850000  1.0
  Li+  Li13  1  0.25850000  0.41200000  0.31850000  1.0
  Li+  Li14  1  0.25850000  0.07866667  0.31850000  1.0
  Li+  Li15  1  0.25850000  0.74533333  0.81850000  1.0
  Li+  Li16  1  0.26370031  0.40806755  0.81397336  1.0
  Li+  Li17  1  0.25850000  0.07866667  0.81850000  1.0
  Li+  Li18  1  0.75850000  0.74533333  0.81850000  1.0
  Li+  Li19  1  0.75741765  0.41660524  0.81690069  1.0
  Li+  Li20  1  0.75850000  0.07866667  0.81850000  1.0
  Li+  Li21  1  0.82950000  0.77800000  0.27750000  1.0
  Li+  Li22  1  0.82950000  0.44466667  0.27750000  1.0
  Li+  Li23  1  0.82950000  0.11133333  0.27750000  1.0
  V3+  V24  1  0.00000000  0.00000000  0.75000000  1.0
  V3+  V25  1  0.00000000  0.66666667  0.75000000  1.0
  V3+  V26  1  0.99955735  0.33537848  0.75074788  1.0
  V3+  V27  1  0.00101527  0.99880624  0.24607023  1.0
  V3+  V28  1  0.00000000  0.66666667  0.25000000  1.0
  V3+  V29  1  0.00000000  0.33333333  0.25000000  1.0
  V3+  V30  1  0.50000000  0.00000000  0.75000000  1.0
  V3+  V31  1  0.50024775  0.66847547  0.75355832  1.0
  V3+  V32  1  0.50000000  0.33333333  0.75000000  1.0
  V3+  V33  1  0.50011478  0.00427028  0.24754767  1.0
  V3+  V34  1  0.49755960  0.66466614  0.25195190  1.0
  V3+  V35  1  0.49696450  0.33118276  0.25228727  1.0
  V3+  V36  1  0.25000000  0.83333333  0.50000000  1.0
  V3+  V37  1  0.24515512  0.50127061  0.50136584  1.0
  V3+  V38  1  0.25000000  0.16666667  0.50000000  1.0
  V3+  V39  1  0.25126417  0.83498512  0.99961426  1.0
  V3+  V40  1  0.25000000  0.50000000  0.00000000  1.0
  V3+  V41  1  0.25000000  0.16666667  0.00000000  1.0
  V3+  V42  1  0.75000000  0.83333333  0.50000000  1.0
  V3+  V43  1  0.75000000  0.50000000  0.50000000  1.0
  V3+  V44  1  0.75000000  0.16666667  0.50000000  1.0
  V3+  V45  1  0.75000000  0.83333333  0.00000000  1.0
  V3+  V46  1  0.75000000  0.50000000  0.00000000  1.0
  V3+  V47  1  0.75000000  0.16666667  0.00000000  1.0
  P5+  P48  1  0.46405000  0.75050000  0.44805000  1.0
  P5+  P49  1  0.46405000  0.41716667  0.44805000  1.0
  P5+  P50  1  0.46074432  0.08350742  0.44978209  1.0
  P5+  P51  1  0.46405000  0.75050000  0.94805000  1.0
  P5+  P52  1  0.46405000  0.41716667  0.94805000  1.0
  P5+  P53  1  0.46405000  0.08383333  0.94805000  1.0
  P5+  P54  1  0.96405000  0.75050000  0.44805000  1.0
  P5+  P55  1  0.96405000  0.41716667  0.44805000  1.0
  P5+  P56  1  0.96405000  0.08383333  0.44805000  1.0
  P5+  P57  1  0.96405000  0.75050000  0.94805000  1.0
  P5+  P58  1  0.96643631  0.42310237  0.94646204  1.0
  P5+  P59  1  0.96405000  0.08383333  0.94805000  1.0
  P5+  P60  1  0.03595000  0.91616667  0.55195000  1.0
  P5+  P61  1  0.03463307  0.58124291  0.54474551  1.0
  P5+  P62  1  0.03595000  0.24950000  0.55195000  1.0
  P5+  P63  1  0.03595000  0.91616667  0.05195000  1.0
  P5+  P64  1  0.03595000  0.58283333  0.05195000  1.0
  P5+  P65  1  0.03595000  0.24950000  0.05195000  1.0
  P5+  P66  1  0.53595000  0.91616667  0.55195000  1.0
  P5+  P67  1  0.53595000  0.58283333  0.55195000  1.0
  P5+  P68  1  0.53595000  0.24950000  0.55195000  1.0
  P5+  P69  1  0.53595000  0.91616667  0.05195000  1.0
  P5+  P70  1  0.53595000  0.58283333  0.05195000  1.0
  P5+  P71  1  0.53595000  0.24950000  0.05195000  1.0
  O2-  O72  1  0.41495000  0.69786667  0.59775000  1.0
  O2-  O73  1  0.41495000  0.36453333  0.59775000  1.0
  O2-  O74  1  0.41495000  0.03120000  0.59775000  1.0
  O2-  O75  1  0.41495000  0.69786667  0.09775000  1.0
  O2-  O76  1  0.41666012  0.36686462  0.09676648  1.0
  O2-  O77  1  0.41495000  0.03120000  0.09775000  1.0
  O2-  O78  1  0.91550948  0.69693686  0.60067899  1.0
  O2-  O79  1  0.91495000  0.36453333  0.59775000  1.0
  O2-  O80  1  0.91495000  0.03120000  0.59775000  1.0
  O2-  O81  1  0.91495000  0.69786667  0.09775000  1.0
  O2-  O82  1  0.91495000  0.36453333  0.09775000  1.0
  O2-  O83  1  0.91495000  0.03120000  0.09775000  1.0
  O2-  O84  1  0.08505000  0.96880000  0.40225000  1.0
  O2-  O85  1  0.08505000  0.63546667  0.40225000  1.0
  O2-  O86  1  0.08505000  0.30213333  0.40225000  1.0
  O2-  O87  1  0.08505000  0.96880000  0.90225000  1.0
  O2-  O88  1  0.08505000  0.63546667  0.90225000  1.0
  O2-  O89  1  0.08505000  0.30213333  0.90225000  1.0
  O2-  O90  1  0.58505000  0.96880000  0.40225000  1.0
  O2-  O91  1  0.58505000  0.63546667  0.40225000  1.0
  O2-  O92  1  0.58341419  0.29933223  0.39879595  1.0
  O2-  O93  1  0.58505000  0.96880000  0.90225000  1.0
  O2-  O94  1  0.58505000  0.63546667  0.90225000  1.0
  O2-  O95  1  0.58505000  0.30213333  0.90225000  1.0
  O2-  O96  1  0.41475000  0.71250000  0.35225000  1.0
  O2-  O97  1  0.41475000  0.37916667  0.35225000  1.0
  O2-  O98  1  0.41475000  0.04583333  0.35225000  1.0
  O2-  O99  1  0.41475000  0.71250000  0.85225000  1.0
  O2-  O100  1  0.41333828  0.38182728  0.85203367  1.0
  O2-  O101  1  0.41475000  0.04583333  0.85225000  1.0
  O2-  O102  1  0.91522017  0.71275479  0.35066541  1.0
  O2-  O103  1  0.91475000  0.37916667  0.35225000  1.0
  O2-  O104  1  0.91475000  0.04583333  0.35225000  1.0
  O2-  O105  1  0.91475000  0.71250000  0.85225000  1.0
  O2-  O106  1  0.91475000  0.37916667  0.85225000  1.0
  O2-  O107  1  0.91869741  0.04422949  0.85303611  1.0
  O2-  O108  1  0.08525000  0.95416667  0.64775000  1.0
  O2-  O109  1  0.08525000  0.62083333  0.64775000  1.0
  O2-  O110  1  0.08381842  0.28748297  0.64662072  1.0
  O2-  O111  1  0.08525000  0.95416667  0.14775000  1.0
  O2-  O112  1  0.08525000  0.62083333  0.14775000  1.0
  O2-  O113  1  0.08525000  0.28750000  0.14775000  1.0
  O2-  O114  1  0.58525000  0.95416667  0.64775000  1.0
  O2-  O115  1  0.58235199  0.62049884  0.64840810  1.0
  O2-  O116  1  0.58525000  0.28750000  0.64775000  1.0
  O2-  O117  1  0.58525000  0.95416667  0.14775000  1.0
  O2-  O118  1  0.58715722  0.61861822  0.14974819  1.0
  O2-  O119  1  0.58868565  0.28852777  0.14514364  1.0
  O2-  O120  1  0.39185000  0.80333333  0.42635000  1.0
  O2-  O121  1  0.39221929  0.46958499  0.42588313  1.0
  O2-  O122  1  0.39185000  0.13666667  0.42635000  1.0
  O2-  O123  1  0.39185000  0.80333333  0.92635000  1.0
  O2-  O124  1  0.39462773  0.46930803  0.92732135  1.0
  O2-  O125  1  0.39185000  0.13666667  0.92635000  1.0
  O2-  O126  1  0.89185000  0.80333333  0.42635000  1.0
  O2-  O127  1  0.89103201  0.46762857  0.42453045  1.0
  O2-  O128  1  0.89185000  0.13666667  0.42635000  1.0
  O2-  O129  1  0.89185000  0.80333333  0.92635000  1.0
  O2-  O130  1  0.89185000  0.47000000  0.92635000  1.0
  O2-  O131  1  0.89185000  0.13666667  0.92635000  1.0
  O2-  O132  1  0.10815000  0.86333333  0.57365000  1.0
  O2-  O133  1  0.10815000  0.53000000  0.57365000  1.0
  O2-  O134  1  0.10815000  0.19666667  0.57365000  1.0
  O2-  O135  1  0.10815000  0.86333333  0.07365000  1.0
  O2-  O136  1  0.10604169  0.53191298  0.07037507  1.0
  O2-  O137  1  0.10815000  0.19666667  0.07365000  1.0
  O2-  O138  1  0.60472348  0.86930740  0.57478074  1.0
  O2-  O139  1  0.60728870  0.53105541  0.56979534  1.0
  O2-  O140  1  0.60815000  0.19666667  0.57365000  1.0
  O2-  O141  1  0.60815000  0.86333333  0.07365000  1.0
  O2-  O142  1  0.60815000  0.53000000  0.07365000  1.0
  O2-  O143  1  0.60815000  0.19666667  0.07365000  1.0
  O2-  O144  1  0.12515000  0.78656667  0.40490000  1.0
  O2-  O145  1  0.12515000  0.45323333  0.40490000  1.0
  O2-  O146  1  0.12515000  0.11990000  0.40490000  1.0
  O2-  O147  1  0.12515000  0.78656667  0.90490000  1.0
  O2-  O148  1  0.12515000  0.45323333  0.90490000  1.0
  O2-  O149  1  0.12515000  0.11990000  0.90490000  1.0
  O2-  O150  1  0.62515000  0.78656667  0.40490000  1.0
  O2-  O151  1  0.62515000  0.45323333  0.40490000  1.0
  O2-  O152  1  0.62794955  0.12328050  0.40862888  1.0
  O2-  O153  1  0.62515000  0.78656667  0.90490000  1.0
  O2-  O154  1  0.62515000  0.45323333  0.90490000  1.0
  O2-  O155  1  0.62375637  0.11708307  0.90261939  1.0
  O2-  O156  1  0.37485000  0.88010000  0.59510000  1.0
  O2-  O157  1  0.37485000  0.54676667  0.59510000  1.0
  O2-  O158  1  0.37485000  0.21343333  0.59510000  1.0
  O2-  O159  1  0.37420973  0.88158788  0.09852849  1.0
  O2-  O160  1  0.37485000  0.54676667  0.09510000  1.0
  O2-  O161  1  0.37325939  0.21132248  0.09184453  1.0
  O2-  O162  1  0.87485000  0.88010000  0.59510000  1.0
  O2-  O163  1  0.87485000  0.54676667  0.59510000  1.0
  O2-  O164  1  0.87198073  0.20969749  0.59353323  1.0
  O2-  O165  1  0.87624780  0.88521475  0.09382231  1.0
  O2-  O166  1  0.87485000  0.54676667  0.09510000  1.0
  O2-  O167  1  0.87192011  0.21564997  0.09869936  1.0
  F-  F168  1  0.31925824  0.91981836  0.32847071  1.0
  F-  F169  1  0.32075000  0.58500000  0.32875000  1.0
  F-  F170  1  0.32075000  0.25166667  0.32875000  1.0
  F-  F171  1  0.32075000  0.91833333  0.82875000  1.0
  F-  F172  1  0.32075000  0.58500000  0.82875000  1.0
  F-  F173  1  0.32075000  0.25166667  0.82875000  1.0
  F-  F174  1  0.82075000  0.91833333  0.32875000  1.0
  F-  F175  1  0.82193634  0.58464415  0.32302543  1.0
  F-  F176  1  0.82292836  0.25545845  0.32675179  1.0
  F-  F177  1  0.82075000  0.91833333  0.82875000  1.0
  F-  F178  1  0.82075000  0.58500000  0.82875000  1.0
  F-  F179  1  0.82092841  0.25495322  0.83015095  1.0
  F-  F180  1  0.18092376  0.75065637  0.67081847  1.0
  F-  F181  1  0.17637091  0.41261395  0.67262982  1.0
  F-  F182  1  0.17925000  0.08166667  0.67125000  1.0
  F-  F183  1  0.17925000  0.74833333  0.17125000  1.0
  F-  F184  1  0.17925000  0.41500000  0.17125000  1.0
  F-  F185  1  0.17284143  0.07864768  0.16697030  1.0
  F-  F186  1  0.67925000  0.74833333  0.67125000  1.0
  F-  F187  1  0.67925000  0.41500000  0.67125000  1.0
  F-  F188  1  0.68034745  0.08047665  0.67723372  1.0
  F-  F189  1  0.67925000  0.74833333  0.17125000  1.0
  F-  F190  1  0.67925000  0.41500000  0.17125000  1.0
  F-  F191  1  0.67925000  0.08166667  0.17125000  1.0
