# generated using pymatgen
data_LiVPO4F
_symmetry_space_group_name_H-M   'P 1'
_cell_length_a   10.69530802
_cell_length_b   10.41222353
_cell_length_c   22.02974091
_cell_angle_alpha   107.17107642
_cell_angle_beta   108.92100250
_cell_angle_gamma   98.33600000
_symmetry_Int_Tables_number   1
_chemical_formula_structural   LiVPO4F
_chemical_formula_sum   'Li24 V24 P24 O96 F24'
_cell_volume   2137.19237918
_cell_formula_units_Z   24
loop_
 _symmetry_equiv_pos_site_id
 _symmetry_equiv_pos_as_xyz
  1  'x, y, z'
loop_
 _atom_type_symbol
 _atom_type_oxidation_number
  Li+  1.0
  V3+  3.0
  P5+  5.0
  O2-  -2.0
  F-  -1.0
loop_
 _atom_site_type_symbol
 _atom_site_label
 _atom_site_symmetry_multiplicity
 _atom_site_fract_x
 _atom_site_fract_y
 _atom_site_fract_z
 _atom_site_occupancy
  Li+  Li0  1  0.93150000  0.42516667  0.07866667  1.0
  Li+  Li1  1  0.93150000  0.42516667  0.41200000  1.0
  Li+  Li2  1  0.93150000  0.42516667  0.74533333  1.0
  Li+  Li3  1  0.43150000  0.42516667  0.07866667  1.0
  Li+  Li4  1  0.43150000  0.42516667  0.41200000  1.0
  Li+  Li5  1  0.43150000  0.42516667  0.74533333  1.0
  Li+  Li6  1  0.93150000  0.92516667  0.07866667  1.0
  Li+  Li7  1  0.93150000  0.92516667  0.41200000  1.0
  Li+  Li8  1  0.93150000  0.92516667  0.74533333  1.0
  Li+  Li9  1  0.43150000  0.92516667  0.07866667  1.0
  Li+  Li10  1  0.43150000  0.92516667  0.41200000  1.0
  Li+  Li11  1  0.43150000  0.92516667  0.74533333  1.0
  Li+  Li12  1  0.56850000  0.40816667  0.25466667  1.0
  Li+  Li13  1  0.56850000  0.40816667  0.58800000  1.0
  Li+  Li14  1  0.56850000  0.40816667  0.92133333  1.0
  Li+  Li15  1  0.06850000  0.40816667  0.25466667  1.0
  Li+  Li16  1  0.06850000  0.40816667  0.58800000  1.0
  Li+  Li17  1  0.06850000  0.40816667  0.92133333  1.0
  Li+  Li18  1  0.06850000  0.90816667  0.25466667  1.0
  Li+  Li19  1  0.06850000  0.90816667  0.58800000  1.0
  Li+  Li20  1  0.06850000  0.90816667  0.92133333  1.0
  Li+  Li21  1  0.52750000  0.83716667  0.22200000  1.0
  Li+  Li22  1  0.52750000  0.83716667  0.55533333  1.0
  Li+  Li23  1  0.52750000  0.83716667  0.88866667  1.0
  V3+  V24  1  0.00000000  0.66666667  0.00000000  1.0
  V3+  V25  1  0.00000000  0.66666667  0.33333333  1.0
  V3+  V26  1  0.00000000  0.66666667  0.66666667  1.0
  V3+  V27  1  0.50000000  0.66666667  0.00000000  1.0
  V3+  V28  1  0.50000000  0.66666667  0.33333333  1.0
  V3+  V29  1  0.50000000  0.66666667  0.66666667  1.0
  V3+  V30  1  0.00000000  0.16666667  0.00000000  1.0
  V3+  V31  1  0.00000000  0.16666667  0.33333333  1.0
  V3+  V32  1  0.00000000  0.16666667  0.66666667  1.0
  V3+  V33  1  0.50000000  0.16666667  0.00000000  1.0
  V3+  V34  1  0.50000000  0.16666667  0.33333333  1.0
  V3+  V35  1  0.50000000  0.16666667  0.66666667  1.0
  V3+  V36  1  0.75000000  0.41666667  0.16666667  1.0
  V3+  V37  1  0.75000000  0.41666667  0.50000000  1.0
  V3+  V38  1  0.75000000  0.41666667  0.83333333  1.0
  V3+  V39  1  0.25000000  0.41666667  0.16666667  1.0
  V3+  V40  1  0.25000000  0.41666667  0.50000000  1.0
  V3+  V41  1  0.25000000  0.41666667  0.83333333  1.0
  V3+  V42  1  0.75000000  0.91666667  0.16666667  1.0
  V3+  V43  1  0.75000000  0.91666667  0.50000000  1.0
  V3+  V44  1  0.75000000  0.91666667  0.83333333  1.0
  V3+  V45  1  0.25000000  0.91666667  0.16666667  1.0
  V3+  V46  1  0.25000000  0.91666667  0.50000000  1.0
  V3+  V47  1  0.25000000  0.91666667  0.83333333  1.0
  P5+  P48  1  0.69805000  0.20261667  0.24950000  1.0
  P5+  P49  1  0.69805000  0.20261667  0.58283333  1.0
  P5+  P50  1  0.69805000  0.20261667  0.91616667  1.0
  P5+  P51  1  0.19805000  0.20261667  0.24950000  1.0
  P5+  P52  1  0.19805000  0.20261667  0.58283333  1.0
  P5+  P53  1  0.19805000  0.20261667  0.91616667  1.0
  P5+  P54  1  0.69805000  0.70261667  0.24950000  1.0
  P5+  P55  1  0.69805000  0.70261667  0.58283333  1.0
  P5+  P56  1  0.69805000  0.70261667  0.91616667  1.0
  P5+  P57  1  0.19805000  0.70261667  0.24950000  1.0
  P5+  P58  1  0.19805000  0.70261667  0.58283333  1.0
  P5+  P59  1  0.19805000  0.70261667  0.91616667  1.0
  P5+  P60  1  0.80195000  0.63071667  0.08383333  1.0
  P5+  P61  1  0.80195000  0.63071667  0.41716667  1.0
  P5+  P62  1  0.80195000  0.63071667  0.75050000  1.0
  P5+  P63  1  0.30195000  0.63071667  0.08383333  1.0
  P5+  P64  1  0.30195000  0.63071667  0.41716667  1.0
  P5+  P65  1  0.30195000  0.63071667  0.75050000  1.0
  P5+  P66  1  0.80195000  0.13071667  0.08383333  1.0
  P5+  P67  1  0.80195000  0.13071667  0.41716667  1.0
  P5+  P68  1  0.80195000  0.13071667  0.75050000  1.0
  P5+  P69  1  0.30195000  0.13071667  0.08383333  1.0
  P5+  P70  1  0.30195000  0.13071667  0.41716667  1.0
  P5+  P71  1  0.30195000  0.13071667  0.75050000  1.0
  O2-  O72  1  0.84775000  0.25171667  0.30213333  1.0
  O2-  O73  1  0.84775000  0.25171667  0.63546667  1.0
  O2-  O74  1  0.84775000  0.25171667  0.96880000  1.0
  O2-  O75  1  0.34775000  0.25171667  0.30213333  1.0
  O2-  O76  1  0.34775000  0.25171667  0.63546667  1.0
  O2-  O77  1  0.34775000  0.25171667  0.96880000  1.0
  O2-  O78  1  0.84775000  0.75171667  0.30213333  1.0
  O2-  O79  1  0.84775000  0.75171667  0.63546667  1.0
  O2-  O80  1  0.84775000  0.75171667  0.96880000  1.0
  O2-  O81  1  0.34775000  0.75171667  0.30213333  1.0
  O2-  O82  1  0.34775000  0.75171667  0.63546667  1.0
  O2-  O83  1  0.34775000  0.75171667  0.96880000  1.0
  O2-  O84  1  0.65225000  0.58161667  0.03120000  1.0
  O2-  O85  1  0.65225000  0.58161667  0.36453333  1.0
  O2-  O86  1  0.65225000  0.58161667  0.69786667  1.0
  O2-  O87  1  0.15225000  0.58161667  0.03120000  1.0
  O2-  O88  1  0.15225000  0.58161667  0.36453333  1.0
  O2-  O89  1  0.15225000  0.58161667  0.69786667  1.0
  O2-  O90  1  0.65225000  0.08161667  0.03120000  1.0
  O2-  O91  1  0.65225000  0.08161667  0.36453333  1.0
  O2-  O92  1  0.65225000  0.08161667  0.69786667  1.0
  O2-  O93  1  0.15225000  0.08161667  0.03120000  1.0
  O2-  O94  1  0.15225000  0.08161667  0.36453333  1.0
  O2-  O95  1  0.15225000  0.08161667  0.69786667  1.0
  O2-  O96  1  0.60225000  0.25191667  0.28750000  1.0
  O2-  O97  1  0.60225000  0.25191667  0.62083333  1.0
  O2-  O98  1  0.60225000  0.25191667  0.95416667  1.0
  O2-  O99  1  0.10225000  0.25191667  0.28750000  1.0
  O2-  O100  1  0.10225000  0.25191667  0.62083333  1.0
  O2-  O101  1  0.10225000  0.25191667  0.95416667  1.0
  O2-  O102  1  0.60225000  0.75191667  0.28750000  1.0
  O2-  O103  1  0.60225000  0.75191667  0.62083333  1.0
  O2-  O104  1  0.60225000  0.75191667  0.95416667  1.0
  O2-  O105  1  0.10225000  0.75191667  0.28750000  1.0
  O2-  O106  1  0.10225000  0.75191667  0.62083333  1.0
  O2-  O107  1  0.10225000  0.75191667  0.95416667  1.0
  O2-  O108  1  0.89775000  0.58141667  0.04583333  1.0
  O2-  O109  1  0.89775000  0.58141667  0.37916667  1.0
  O2-  O110  1  0.89775000  0.58141667  0.71250000  1.0
  O2-  O111  1  0.39775000  0.58141667  0.04583333  1.0
  O2-  O112  1  0.39775000  0.58141667  0.37916667  1.0
  O2-  O113  1  0.39775000  0.58141667  0.71250000  1.0
  O2-  O114  1  0.89775000  0.08141667  0.04583333  1.0
  O2-  O115  1  0.89775000  0.08141667  0.37916667  1.0
  O2-  O116  1  0.89775000  0.08141667  0.71250000  1.0
  O2-  O117  1  0.39775000  0.08141667  0.04583333  1.0
  O2-  O118  1  0.39775000  0.08141667  0.37916667  1.0
  O2-  O119  1  0.39775000  0.08141667  0.71250000  1.0
  O2-  O120  1  0.67635000  0.27481667  0.19666667  1.0
  O2-  O121  1  0.67635000  0.27481667  0.53000000  1.0
  O2-  O122  1  0.67635000  0.27481667  0.86333333  1.0
  O2-  O123  1  0.17635000  0.27481667  0.19666667  1.0
  O2-  O124  1  0.17635000  0.27481667  0.53000000  1.0
  O2-  O125  1  0.17635000  0.27481667  0.86333333  1.0
  O2-  O126  1  0.67635000  0.77481667  0.19666667  1.0
  O2-  O127  1  0.67635000  0.77481667  0.53000000  1.0
  O2-  O128  1  0.67635000  0.77481667  0.86333333  1.0
  O2-  O129  1  0.17635000  0.77481667  0.19666667  1.0
  O2-  O130  1  0.17635000  0.77481667  0.53000000  1.0
  O2-  O131  1  0.17635000  0.77481667  0.86333333  1.0
  O2-  O132  1  0.82365000  0.55851667  0.13666667  1.0
  O2-  O133  1  0.82365000  0.55851667  0.47000000  1.0
  O2-  O134  1  0.82365000  0.55851667  0.80333333  1.0
  O2-  O135  1  0.32365000  0.55851667  0.13666667  1.0
  O2-  O136  1  0.32365000  0.55851667  0.47000000  1.0
  O2-  O137  1  0.32365000  0.55851667  0.80333333  1.0
  O2-  O138  1  0.82365000  0.05851667  0.13666667  1.0
  O2-  O139  1  0.82365000  0.05851667  0.47000000  1.0
  O2-  O140  1  0.82365000  0.05851667  0.80333333  1.0
  O2-  O141  1  0.32365000  0.05851667  0.13666667  1.0
  O2-  O142  1  0.32365000  0.05851667  0.47000000  1.0
  O2-  O143  1  0.32365000  0.05851667  0.80333333  1.0
  O2-  O144  1  0.65490000  0.54151667  0.21343333  1.0
  O2-  O145  1  0.65490000  0.54151667  0.54676667  1.0
  O2-  O146  1  0.65490000  0.54151667  0.88010000  1.0
  O2-  O147  1  0.15490000  0.54151667  0.21343333  1.0
  O2-  O148  1  0.15490000  0.54151667  0.54676667  1.0
  O2-  O149  1  0.15490000  0.54151667  0.88010000  1.0
  O2-  O150  1  0.65490000  0.04151667  0.21343333  1.0
  O2-  O151  1  0.65490000  0.04151667  0.54676667  1.0
  O2-  O152  1  0.65490000  0.04151667  0.88010000  1.0
  O2-  O153  1  0.15490000  0.04151667  0.21343333  1.0
  O2-  O154  1  0.15490000  0.04151667  0.54676667  1.0
  O2-  O155  1  0.15490000  0.04151667  0.88010000  1.0
  O2-  O156  1  0.84510000  0.29181667  0.11990000  1.0
  O2-  O157  1  0.84510000  0.29181667  0.45323333  1.0
  O2-  O158  1  0.84510000  0.29181667  0.78656667  1.0
  O2-  O159  1  0.34510000  0.29181667  0.11990000  1.0
  O2-  O160  1  0.34510000  0.29181667  0.45323333  1.0
  O2-  O161  1  0.34510000  0.29181667  0.78656667  1.0
  O2-  O162  1  0.84510000  0.79181667  0.11990000  1.0
  O2-  O163  1  0.84510000  0.79181667  0.45323333  1.0
  O2-  O164  1  0.84510000  0.79181667  0.78656667  1.0
  O2-  O165  1  0.34510000  0.79181667  0.11990000  1.0
  O2-  O166  1  0.34510000  0.79181667  0.45323333  1.0
  O2-  O167  1  0.34510000  0.79181667  0.78656667  1.0
  F-  F168  1  0.57875000  0.34591667  0.08166667  1.0
  F-  F169  1  0.57875000  0.34591667  0.41500000  1.0
  F-  F170  1  0.57875000  0.34591667  0.74833333  1.0
  F-  F171  1  0.07875000  0.34591667  0.08166667  1.0
  F-  F172  1  0.07875000  0.34591667  0.41500000  1.0
  F-  F173  1  0.07875000  0.34591667  0.74833333  1.0
  F-  F174  1  0.57875000  0.84591667  0.08166667  1.0
  F-  F175  1  0.57875000  0.84591667  0.41500000  1.0
  F-  F176  1  0.57875000  0.84591667  0.74833333  1.0
  F-  F177  1  0.07875000  0.84591667  0.08166667  1.0
  F-  F178  1  0.07875000  0.84591667  0.41500000  1.0
  F-  F179  1  0.07875000  0.84591667  0.74833333  1.0
  F-  F180  1  0.92125000  0.48741667  0.25166667  1.0
  F-  F181  1  0.92125000  0.48741667  0.58500000  1.0
  F-  F182  1  0.92125000  0.48741667  0.91833333  1.0
  F-  F183  1  0.42125000  0.48741667  0.25166667  1.0
  F-  F184  1  0.42125000  0.48741667  0.58500000  1.0
  F-  F185  1  0.42125000  0.48741667  0.91833333  1.0
  F-  F186  1  0.92125000  0.98741667  0.25166667  1.0
  F-  F187  1  0.92125000  0.98741667  0.58500000  1.0
  F-  F188  1  0.92125000  0.98741667  0.91833333  1.0
  F-  F189  1  0.42125000  0.98741667  0.25166667  1.0
  F-  F190  1  0.42125000  0.98741667  0.58500000  1.0
  F-  F191  1  0.42125000  0.98741667  0.91833333  1.0
