# generated using pymatgen
data_LiVPO4F
_symmetry_space_group_name_H-M   'P 1'
_cell_length_a   10.33776000
_cell_length_b   10.61882000
_cell_length_c   21.87219414
_cell_angle_alpha   71.07899750
_cell_angle_beta   72.82892358
_cell_angle_gamma   98.33600000
_symmetry_Int_Tables_number   1
_chemical_formula_structural   LiVPO4F
_chemical_formula_sum   'Li24 V24 P24 O96 F24'
_cell_volume   2091.66680667
_cell_formula_units_Z   24
loop_
 _symmetry_equiv_pos_site_id
 _symmetry_equiv_pos_as_xyz
  1  'x, y, z'
loop_
 _atom_type_symbol
 _atom_type_oxidation_number
  Li+  1.0
  V3+  3.0
  P5+  5.0
  O2-  -2.0
  F-  -1.0
loop_
 _atom_site_type_symbol
 _atom_site_label
 _atom_site_symmetry_multiplicity
 _atom_site_fract_x
 _atom_site_fract_y
 _atom_site_fract_z
 _atom_site_occupancy
  Li+  Li0  1  0.24150000  0.06850000  0.07866667  1.0
  Li+  Li0  1  0.24150000  0.06850000  0.41200000  1.0
  Li+  Li0  1  0.24150000  0.06850000  0.74533333  1.0
  Li+  Li1  1  0.24150000  0.56850000  0.07866667  1.0
  Li+  Li1  1  0.24150000  0.56850000  0.41200000  1.0
  Li+  Li1  1  0.24150000  0.56850000  0.74533333  1.0
  Li+  Li2  1  0.74150000  0.06850000  0.07866667  1.0
  Li+  Li2  1  0.74150000  0.06850000  0.41200000  1.0
  Li+  Li2  1  0.74150000  0.06850000  0.74533333  1.0
  Li+  Li3  1  0.74150000  0.56850000  0.07866667  1.0
  Li+  Li3  1  0.74150000  0.56850000  0.41200000  1.0
  Li+  Li3  1  0.74150000  0.56850000  0.74533333  1.0
  Li+  Li4  1  0.25850000  0.43150000  0.25466667  1.0
  Li+  Li4  1  0.25850000  0.43150000  0.58800000  1.0
  Li+  Li4  1  0.25850000  0.43150000  0.92133333  1.0
  Li+  Li5  1  0.25850000  0.93150000  0.25466667  1.0
  Li+  Li5  1  0.25850000  0.93150000  0.58800000  1.0
  Li+  Li5  1  0.25850000  0.93150000  0.92133333  1.0
  Li+  Li6  1  0.75850000  0.93150000  0.25466667  1.0
  Li+  Li6  1  0.75850000  0.93150000  0.58800000  1.0
  Li+  Li6  1  0.75850000  0.93150000  0.92133333  1.0
  Li+  Li7  1  0.82950000  0.47250000  0.22200000  1.0
  Li+  Li7  1  0.82950000  0.47250000  0.55533333  1.0
  Li+  Li7  1  0.82950000  0.47250000  0.88866667  1.0
  V3+  V1  1  0.00000000  0.00000000  0.00000000  1.0
  V3+  V1  1  0.00000000  0.00000000  0.33333333  1.0
  V3+  V1  1  0.00000000  0.00000000  0.66666667  1.0
  V3+  V1  1  0.00000000  0.50000000  0.00000000  1.0
  V3+  V1  1  0.00000000  0.50000000  0.33333333  1.0
  V3+  V1  1  0.00000000  0.50000000  0.66666667  1.0
  V3+  V1  1  0.50000000  0.00000000  0.00000000  1.0
  V3+  V1  1  0.50000000  0.00000000  0.33333333  1.0
  V3+  V1  1  0.50000000  0.00000000  0.66666667  1.0
  V3+  V1  1  0.50000000  0.50000000  0.00000000  1.0
  V3+  V1  1  0.50000000  0.50000000  0.33333333  1.0
  V3+  V1  1  0.50000000  0.50000000  0.66666667  1.0
  V3+  V2  1  0.25000000  0.25000000  0.16666667  1.0
  V3+  V2  1  0.25000000  0.25000000  0.50000000  1.0
  V3+  V2  1  0.25000000  0.25000000  0.83333333  1.0
  V3+  V2  1  0.25000000  0.75000000  0.16666667  1.0
  V3+  V2  1  0.25000000  0.75000000  0.50000000  1.0
  V3+  V2  1  0.25000000  0.75000000  0.83333333  1.0
  V3+  V2  1  0.75000000  0.25000000  0.16666667  1.0
  V3+  V2  1  0.75000000  0.25000000  0.50000000  1.0
  V3+  V2  1  0.75000000  0.25000000  0.83333333  1.0
  V3+  V2  1  0.75000000  0.75000000  0.16666667  1.0
  V3+  V2  1  0.75000000  0.75000000  0.50000000  1.0
  V3+  V2  1  0.75000000  0.75000000  0.83333333  1.0
  P5+  P1  1  0.46405000  0.30195000  0.24950000  1.0
  P5+  P1  1  0.46405000  0.30195000  0.58283333  1.0
  P5+  P1  1  0.46405000  0.30195000  0.91616667  1.0
  P5+  P1  1  0.46405000  0.80195000  0.24950000  1.0
  P5+  P1  1  0.46405000  0.80195000  0.58283333  1.0
  P5+  P1  1  0.46405000  0.80195000  0.91616667  1.0
  P5+  P1  1  0.96405000  0.30195000  0.24950000  1.0
  P5+  P1  1  0.96405000  0.30195000  0.58283333  1.0
  P5+  P1  1  0.96405000  0.30195000  0.91616667  1.0
  P5+  P1  1  0.96405000  0.80195000  0.24950000  1.0
  P5+  P1  1  0.96405000  0.80195000  0.58283333  1.0
  P5+  P1  1  0.96405000  0.80195000  0.91616667  1.0
  P5+  P1  1  0.03595000  0.19805000  0.08383333  1.0
  P5+  P1  1  0.03595000  0.19805000  0.41716667  1.0
  P5+  P1  1  0.03595000  0.19805000  0.75050000  1.0
  P5+  P1  1  0.03595000  0.69805000  0.08383333  1.0
  P5+  P1  1  0.03595000  0.69805000  0.41716667  1.0
  P5+  P1  1  0.03595000  0.69805000  0.75050000  1.0
  P5+  P1  1  0.53595000  0.19805000  0.08383333  1.0
  P5+  P1  1  0.53595000  0.19805000  0.41716667  1.0
  P5+  P1  1  0.53595000  0.19805000  0.75050000  1.0
  P5+  P1  1  0.53595000  0.69805000  0.08383333  1.0
  P5+  P1  1  0.53595000  0.69805000  0.41716667  1.0
  P5+  P1  1  0.53595000  0.69805000  0.75050000  1.0
  O2-  O1  1  0.41495000  0.15225000  0.30213333  1.0
  O2-  O1  1  0.41495000  0.15225000  0.63546667  1.0
  O2-  O1  1  0.41495000  0.15225000  0.96880000  1.0
  O2-  O1  1  0.41495000  0.65225000  0.30213333  1.0
  O2-  O1  1  0.41495000  0.65225000  0.63546667  1.0
  O2-  O1  1  0.41495000  0.65225000  0.96880000  1.0
  O2-  O1  1  0.91495000  0.15225000  0.30213333  1.0
  O2-  O1  1  0.91495000  0.15225000  0.63546667  1.0
  O2-  O1  1  0.91495000  0.15225000  0.96880000  1.0
  O2-  O1  1  0.91495000  0.65225000  0.30213333  1.0
  O2-  O1  1  0.91495000  0.65225000  0.63546667  1.0
  O2-  O1  1  0.91495000  0.65225000  0.96880000  1.0
  O2-  O1  1  0.08505000  0.34775000  0.03120000  1.0
  O2-  O1  1  0.08505000  0.34775000  0.36453333  1.0
  O2-  O1  1  0.08505000  0.34775000  0.69786667  1.0
  O2-  O1  1  0.08505000  0.84775000  0.03120000  1.0
  O2-  O1  1  0.08505000  0.84775000  0.36453333  1.0
  O2-  O1  1  0.08505000  0.84775000  0.69786667  1.0
  O2-  O1  1  0.58505000  0.34775000  0.03120000  1.0
  O2-  O1  1  0.58505000  0.34775000  0.36453333  1.0
  O2-  O1  1  0.58505000  0.34775000  0.69786667  1.0
  O2-  O1  1  0.58505000  0.84775000  0.03120000  1.0
  O2-  O1  1  0.58505000  0.84775000  0.36453333  1.0
  O2-  O1  1  0.58505000  0.84775000  0.69786667  1.0
  O2-  O2  1  0.41475000  0.39775000  0.28750000  1.0
  O2-  O2  1  0.41475000  0.39775000  0.62083333  1.0
  O2-  O2  1  0.41475000  0.39775000  0.95416667  1.0
  O2-  O2  1  0.41475000  0.89775000  0.28750000  1.0
  O2-  O2  1  0.41475000  0.89775000  0.62083333  1.0
  O2-  O2  1  0.41475000  0.89775000  0.95416667  1.0
  O2-  O2  1  0.91475000  0.39775000  0.28750000  1.0
  O2-  O2  1  0.91475000  0.39775000  0.62083333  1.0
  O2-  O2  1  0.91475000  0.39775000  0.95416667  1.0
  O2-  O2  1  0.91475000  0.89775000  0.28750000  1.0
  O2-  O2  1  0.91475000  0.89775000  0.62083333  1.0
  O2-  O2  1  0.91475000  0.89775000  0.95416667  1.0
  O2-  O2  1  0.08525000  0.10225000  0.04583333  1.0
  O2-  O2  1  0.08525000  0.10225000  0.37916667  1.0
  O2-  O2  1  0.08525000  0.10225000  0.71250000  1.0
  O2-  O2  1  0.08525000  0.60225000  0.04583333  1.0
  O2-  O2  1  0.08525000  0.60225000  0.37916667  1.0
  O2-  O2  1  0.08525000  0.60225000  0.71250000  1.0
  O2-  O2  1  0.58525000  0.10225000  0.04583333  1.0
  O2-  O2  1  0.58525000  0.10225000  0.37916667  1.0
  O2-  O2  1  0.58525000  0.10225000  0.71250000  1.0
  O2-  O2  1  0.58525000  0.60225000  0.04583333  1.0
  O2-  O2  1  0.58525000  0.60225000  0.37916667  1.0
  O2-  O2  1  0.58525000  0.60225000  0.71250000  1.0
  O2-  O3  1  0.39185000  0.32365000  0.19666667  1.0
  O2-  O3  1  0.39185000  0.32365000  0.53000000  1.0
  O2-  O3  1  0.39185000  0.32365000  0.86333333  1.0
  O2-  O3  1  0.39185000  0.82365000  0.19666667  1.0
  O2-  O3  1  0.39185000  0.82365000  0.53000000  1.0
  O2-  O3  1  0.39185000  0.82365000  0.86333333  1.0
  O2-  O3  1  0.89185000  0.32365000  0.19666667  1.0
  O2-  O3  1  0.89185000  0.32365000  0.53000000  1.0
  O2-  O3  1  0.89185000  0.32365000  0.86333333  1.0
  O2-  O3  1  0.89185000  0.82365000  0.19666667  1.0
  O2-  O3  1  0.89185000  0.82365000  0.53000000  1.0
  O2-  O3  1  0.89185000  0.82365000  0.86333333  1.0
  O2-  O3  1  0.10815000  0.17635000  0.13666667  1.0
  O2-  O3  1  0.10815000  0.17635000  0.47000000  1.0
  O2-  O3  1  0.10815000  0.17635000  0.80333333  1.0
  O2-  O3  1  0.10815000  0.67635000  0.13666667  1.0
  O2-  O3  1  0.10815000  0.67635000  0.47000000  1.0
  O2-  O3  1  0.10815000  0.67635000  0.80333333  1.0
  O2-  O3  1  0.60815000  0.17635000  0.13666667  1.0
  O2-  O3  1  0.60815000  0.17635000  0.47000000  1.0
  O2-  O3  1  0.60815000  0.17635000  0.80333333  1.0
  O2-  O3  1  0.60815000  0.67635000  0.13666667  1.0
  O2-  O3  1  0.60815000  0.67635000  0.47000000  1.0
  O2-  O3  1  0.60815000  0.67635000  0.80333333  1.0
  O2-  O4  1  0.12515000  0.34510000  0.21343333  1.0
  O2-  O4  1  0.12515000  0.34510000  0.54676667  1.0
  O2-  O4  1  0.12515000  0.34510000  0.88010000  1.0
  O2-  O4  1  0.12515000  0.84510000  0.21343333  1.0
  O2-  O4  1  0.12515000  0.84510000  0.54676667  1.0
  O2-  O4  1  0.12515000  0.84510000  0.88010000  1.0
  O2-  O4  1  0.62515000  0.34510000  0.21343333  1.0
  O2-  O4  1  0.62515000  0.34510000  0.54676667  1.0
  O2-  O4  1  0.62515000  0.34510000  0.88010000  1.0
  O2-  O4  1  0.62515000  0.84510000  0.21343333  1.0
  O2-  O4  1  0.62515000  0.84510000  0.54676667  1.0
  O2-  O4  1  0.62515000  0.84510000  0.88010000  1.0
  O2-  O4  1  0.37485000  0.15490000  0.11990000  1.0
  O2-  O4  1  0.37485000  0.15490000  0.45323333  1.0
  O2-  O4  1  0.37485000  0.15490000  0.78656667  1.0
  O2-  O4  1  0.37485000  0.65490000  0.11990000  1.0
  O2-  O4  1  0.37485000  0.65490000  0.45323333  1.0
  O2-  O4  1  0.37485000  0.65490000  0.78656667  1.0
  O2-  O4  1  0.87485000  0.15490000  0.11990000  1.0
  O2-  O4  1  0.87485000  0.15490000  0.45323333  1.0
  O2-  O4  1  0.87485000  0.15490000  0.78656667  1.0
  O2-  O4  1  0.87485000  0.65490000  0.11990000  1.0
  O2-  O4  1  0.87485000  0.65490000  0.45323333  1.0
  O2-  O4  1  0.87485000  0.65490000  0.78656667  1.0
  F-  F1  1  0.32075000  0.42125000  0.08166667  1.0
  F-  F1  1  0.32075000  0.42125000  0.41500000  1.0
  F-  F1  1  0.32075000  0.42125000  0.74833333  1.0
  F-  F1  1  0.32075000  0.92125000  0.08166667  1.0
  F-  F1  1  0.32075000  0.92125000  0.41500000  1.0
  F-  F1  1  0.32075000  0.92125000  0.74833333  1.0
  F-  F1  1  0.82075000  0.42125000  0.08166667  1.0
  F-  F1  1  0.82075000  0.42125000  0.41500000  1.0
  F-  F1  1  0.82075000  0.42125000  0.74833333  1.0
  F-  F1  1  0.82075000  0.92125000  0.08166667  1.0
  F-  F1  1  0.82075000  0.92125000  0.41500000  1.0
  F-  F1  1  0.82075000  0.92125000  0.74833333  1.0
  F-  F1  1  0.17925000  0.07875000  0.25166667  1.0
  F-  F1  1  0.17925000  0.07875000  0.58500000  1.0
  F-  F1  1  0.17925000  0.07875000  0.91833333  1.0
  F-  F1  1  0.17925000  0.57875000  0.25166667  1.0
  F-  F1  1  0.17925000  0.57875000  0.58500000  1.0
  F-  F1  1  0.17925000  0.57875000  0.91833333  1.0
  F-  F1  1  0.67925000  0.07875000  0.25166667  1.0
  F-  F1  1  0.67925000  0.07875000  0.58500000  1.0
  F-  F1  1  0.67925000  0.07875000  0.91833333  1.0
  F-  F1  1  0.67925000  0.57875000  0.25166667  1.0
  F-  F1  1  0.67925000  0.57875000  0.58500000  1.0
  F-  F1  1  0.67925000  0.57875000  0.91833333  1.0
