# generated using pymatgen
data_Li60P10Se3S47Br10
_symmetry_space_group_name_H-M   'P 1'
_cell_length_a   7.07662567
_cell_length_b   35.38312836
_cell_length_c   14.15325134
_cell_angle_alpha   60.00000000
_cell_angle_beta   120.00000000
_cell_angle_gamma   120.00000000
_symmetry_Int_Tables_number   1
_chemical_formula_structural   Li60P10Se3S47Br10
_chemical_formula_sum   'Li60 P10 Se3 S47 Br10'
_cell_volume   2505.89963415
_cell_formula_units_Z   1
loop_
 _symmetry_equiv_pos_site_id
 _symmetry_equiv_pos_as_xyz
  1  'x, y, z'
loop_
 _atom_type_symbol
 _atom_type_oxidation_number
  Li+  1.0
  P5+  5.0
  Se2-  -2.0
  S2-  -2.0
  Br-  -1.0
loop_
 _atom_site_type_symbol
 _atom_site_label
 _atom_site_symmetry_multiplicity
 _atom_site_fract_x
 _atom_site_fract_y
 _atom_site_fract_z
 _atom_site_occupancy
  Li+  Li0  1  0.01700000  0.30340000  0.50850000  1.0
  Li+  Li1  1  0.48300000  0.59660000  0.74150000  1.0
  Li+  Li2  1  0.01700000  0.39660000  0.50850000  1.0
  Li+  Li3  1  0.26780000  0.46360000  0.69100000  1.0
  Li+  Li4  1  0.26780000  0.86360000  0.19100000  1.0
  Li+  Li5  1  0.92775305  0.74907582  0.40913554  1.0
  Li+  Li6  1  0.93220000  0.54644000  0.40900000  1.0
  Li+  Li7  1  0.93039269  0.34283675  0.40688571  1.0
  Li+  Li8  1  0.93220000  0.94644000  0.90900000  1.0
  Li+  Li9  1  0.93220000  0.14644000  0.90900000  1.0
  Li+  Li10  1  0.68200000  0.57640000  0.28390000  1.0
  Li+  Li11  1  0.68200000  0.37640000  0.78390000  1.0
  Li+  Li12  1  0.68284216  0.35014703  0.28437566  1.0
  Li+  Li13  1  0.68200000  0.14644000  0.28390000  1.0
  Li+  Li14  1  0.68200000  0.94644000  0.78390000  1.0
  Li+  Li15  1  0.68337226  0.54591446  0.78593560  1.0
  Li+  Li16  1  0.93220000  0.66360000  0.19100000  1.0
  Li+  Li17  1  0.93220000  0.54644000  0.69100000  1.0
  Li+  Li18  1  0.11624828  0.86464352  0.28461814  1.0
  Li+  Li19  1  0.11800000  0.46360000  0.78390000  1.0
  Li+  Li20  1  0.11800000  0.26360000  0.78390000  1.0
  Li+  Li21  1  0.11800000  0.94644000  0.28390000  1.0
  Li+  Li22  1  0.11498779  0.14664855  0.27828286  1.0
  Li+  Li23  1  0.11800000  0.34644000  0.78390000  1.0
  Li+  Li24  1  0.11888844  0.14630889  0.78636719  1.0
  Li+  Li25  1  0.93220000  0.06360000  0.61610000  1.0
  Li+  Li26  1  0.93220000  0.86360000  0.11610000  1.0
  Li+  Li27  1  0.93220000  0.37640000  0.61610000  1.0
  Li+  Li28  1  0.93220000  0.17640000  0.61610000  1.0
  Li+  Li29  1  0.93220000  0.17640000  0.11610000  1.0
  Li+  Li30  1  0.26780000  0.37640000  0.28390000  1.0
  Li+  Li31  1  0.68068516  0.41639702  0.18855340  1.0
  Li+  Li32  1  0.11800000  0.41356000  0.40900000  1.0
  Li+  Li33  1  0.12103962  0.21889081  0.90985084  1.0
  Li+  Li34  1  0.68200000  0.14644000  0.69100000  1.0
  Li+  Li35  1  0.68200000  0.94644000  0.19100000  1.0
  Li+  Li36  1  0.68200000  0.74644000  0.19100000  1.0
  Li+  Li37  1  0.11800000  0.74644000  0.40900000  1.0
  Li+  Li38  1  0.11800000  0.74644000  0.90900000  1.0
  Li+  Li39  1  0.11800000  0.54644000  0.90900000  1.0
  Li+  Li40  1  0.68200000  0.81356000  0.61610000  1.0
  Li+  Li41  1  0.68200000  0.41356000  0.61610000  1.0
  Li+  Li42  1  0.68183803  0.01269070  0.61705476  1.0
  Li+  Li43  1  0.68203145  0.61473698  0.11430762  1.0
  Li+  Li44  1  0.68200000  0.01356000  0.11610000  1.0
  Li+  Li45  1  0.26780000  0.01356000  0.40900000  1.0
  Li+  Li46  1  0.26780000  0.61356000  0.90900000  1.0
  Li+  Li47  1  0.68223365  0.77763289  0.11473606  1.0
  Li+  Li48  1  0.68200000  0.17640000  0.11610000  1.0
  Li+  Li49  1  0.26780000  0.77640000  0.90900000  1.0
  Li+  Li50  1  0.26780000  0.37640000  0.90900000  1.0
  Li+  Li51  1  0.12227777  0.81198489  0.61344961  1.0
  Li+  Li52  1  0.11800000  0.61356000  0.61610000  1.0
  Li+  Li53  1  0.11899468  0.41748211  0.61467185  1.0
  Li+  Li54  1  0.12091045  0.01399973  0.11508713  1.0
  Li+  Li55  1  0.26780000  0.81356000  0.69100000  1.0
  Li+  Li56  1  0.26780000  0.01356000  0.69100000  1.0
  Li+  Li57  1  0.26780000  0.21356000  0.19100000  1.0
  Li+  Li58  1  0.11616355  0.66395354  0.11579813  1.0
  Li+  Li59  1  0.93220000  0.57640000  0.90900000  1.0
  P5+  P60  1  0.50000000  0.90000000  0.50000000  1.0
  P5+  P61  1  0.50000000  0.70000000  0.50000000  1.0
  P5+  P62  1  0.50462622  0.50214973  0.50082063  1.0
  P5+  P63  1  0.50000000  0.30000000  0.50000000  1.0
  P5+  P64  1  0.50000000  0.10000000  0.50000000  1.0
  P5+  P65  1  0.50000000  0.90000000  0.00000000  1.0
  P5+  P66  1  0.50000000  0.70000000  0.00000000  1.0
  P5+  P67  1  0.50000000  0.50000000  0.00000000  1.0
  P5+  P68  1  0.50000000  0.30000000  0.00000000  1.0
  P5+  P69  1  0.50000000  0.10000000  0.00000000  1.0
  Se2-  Se70  1  0.62535510  0.67492898  0.18803265  1.0
  Se2-  Se71  1  0.25000000  0.35000000  0.62500000  1.0
  Se2-  Se72  1  0.25000000  0.15000000  0.62500000  1.0
  S2-  S73  1  0.62535510  0.87492898  0.68803265  1.0
  S2-  S74  1  0.62535510  0.67492898  0.68803265  1.0
  S2-  S75  1  0.62729719  0.47237096  0.68734464  1.0
  S2-  S76  1  0.62535510  0.27492898  0.68803265  1.0
  S2-  S77  1  0.62535510  0.07492898  0.68803265  1.0
  S2-  S78  1  0.62535510  0.87492898  0.18803265  1.0
  S2-  S79  1  0.62535510  0.47492898  0.18803265  1.0
  S2-  S80  1  0.63532050  0.27280572  0.18150756  1.0
  S2-  S81  1  0.62535510  0.07492898  0.18803265  1.0
  S2-  S82  1  0.62535510  0.87492898  0.43732245  1.0
  S2-  S83  1  0.62535510  0.67492898  0.43732245  1.0
  S2-  S84  1  0.62535510  0.47492898  0.43732245  1.0
  S2-  S85  1  0.62535510  0.27492898  0.43732245  1.0
  S2-  S86  1  0.62543969  0.07670487  0.43882337  1.0
  S2-  S87  1  0.62361890  0.87416911  0.93707748  1.0
  S2-  S88  1  0.62535510  0.67492898  0.93732245  1.0
  S2-  S89  1  0.62535510  0.47492898  0.93732245  1.0
  S2-  S90  1  0.62535510  0.27492898  0.93732245  1.0
  S2-  S91  1  0.62535510  0.07492898  0.93732245  1.0
  S2-  S92  1  0.62535510  0.97521306  0.43732245  1.0
  S2-  S93  1  0.62535510  0.77521306  0.43732245  1.0
  S2-  S94  1  0.62535510  0.57521306  0.43732245  1.0
  S2-  S95  1  0.62884508  0.37682474  0.44233279  1.0
  S2-  S96  1  0.62327101  0.17170813  0.44229973  1.0
  S2-  S97  1  0.62535510  0.97521306  0.93732245  1.0
  S2-  S98  1  0.62597312  0.77388109  0.93607942  1.0
  S2-  S99  1  0.62535510  0.57521306  0.93732245  1.0
  S2-  S100  1  0.62561973  0.37674041  0.93981215  1.0
  S2-  S101  1  0.62656459  0.17691417  0.93790244  1.0
  S2-  S102  1  0.12384523  0.87946533  0.44171206  1.0
  S2-  S103  1  0.12518593  0.67244694  0.44267307  1.0
  S2-  S104  1  0.12393470  0.47492898  0.43732245  1.0
  S2-  S105  1  0.12393470  0.27492898  0.43732245  1.0
  S2-  S106  1  0.12143253  0.07366636  0.43749578  1.0
  S2-  S107  1  0.12393470  0.87492898  0.93732245  1.0
  S2-  S108  1  0.12393470  0.67492898  0.93732245  1.0
  S2-  S109  1  0.12393470  0.47492898  0.93732245  1.0
  S2-  S110  1  0.12393470  0.27492898  0.93732245  1.0
  S2-  S111  1  0.12393470  0.07492898  0.93732245  1.0
  S2-  S112  1  0.25000000  0.95000000  0.62500000  1.0
  S2-  S113  1  0.25000000  0.75000000  0.62500000  1.0
  S2-  S114  1  0.25000000  0.55000000  0.62500000  1.0
  S2-  S115  1  0.25000000  0.95000000  0.12500000  1.0
  S2-  S116  1  0.25000000  0.75000000  0.12500000  1.0
  S2-  S117  1  0.25000000  0.55000000  0.12500000  1.0
  S2-  S118  1  0.25000000  0.35000000  0.12500000  1.0
  S2-  S119  1  0.25298906  0.15122458  0.12460671  1.0
  Br-  Br120  1  0.00000000  0.00000000  0.75000000  1.0
  Br-  Br121  1  0.00000000  0.80000000  0.75000000  1.0
  Br-  Br122  1  0.00000000  0.60000000  0.75000000  1.0
  Br-  Br123  1  0.00000000  0.40000000  0.75000000  1.0
  Br-  Br124  1  0.00000020  0.20213389  0.75269756  1.0
  Br-  Br125  1  0.00000000  0.00000000  0.25000000  1.0
  Br-  Br126  1  0.00000000  0.80000000  0.25000000  1.0
  Br-  Br127  1  0.00000000  0.60000000  0.25000000  1.0
  Br-  Br128  1  0.99846018  0.39951956  0.24721582  1.0
  Br-  Br129  1  0.00000000  0.20000000  0.25000000  1.0
