# generated using pymatgen
data_Li60P10Se3S47Br10
_symmetry_space_group_name_H-M   'P 1'
_cell_length_a   14.16837315
_cell_length_b   7.08418658
_cell_length_c   35.42093289
_cell_angle_alpha   120.00000000
_cell_angle_beta   120.00000000
_cell_angle_gamma   60.00000000
_symmetry_Int_Tables_number   1
_chemical_formula_structural   Li60P10Se3S47Br10
_chemical_formula_sum   'Li60 P10 Se3 S47 Br10'
_cell_volume   2513.94038366
_cell_formula_units_Z   1
loop_
 _symmetry_equiv_pos_site_id
 _symmetry_equiv_pos_as_xyz
  1  'x, y, z'
loop_
 _atom_type_symbol
 _atom_type_oxidation_number
  Li+  1.0
  P5+  5.0
  Se2-  -2.0
  S2-  -2.0
  Br-  -1.0
loop_
 _atom_site_type_symbol
 _atom_site_label
 _atom_site_symmetry_multiplicity
 _atom_site_fract_x
 _atom_site_fract_y
 _atom_site_fract_z
 _atom_site_occupancy
  Li+  Li0  1  0.75850000  0.64966667  0.69660000  1.0
  Li+  Li1  1  0.99150000  0.18366667  0.40340000  1.0
  Li+  Li2  1  0.75850000  0.64966667  0.60340000  1.0
  Li+  Li3  1  0.94100000  0.39886667  0.53640000  1.0
  Li+  Li4  1  0.44100000  0.39886667  0.13640000  1.0
  Li+  Li5  1  0.65900000  0.73446667  0.25356000  1.0
  Li+  Li6  1  0.65900000  0.73446667  0.45356000  1.0
  Li+  Li7  1  0.65900000  0.73446667  0.65356000  1.0
  Li+  Li8  1  0.15900000  0.73446667  0.05356000  1.0
  Li+  Li9  1  0.15900000  0.73446667  0.85356000  1.0
  Li+  Li10  1  0.53390000  0.98466667  0.42360000  1.0
  Li+  Li11  1  0.03390000  0.98466667  0.62360000  1.0
  Li+  Li12  1  0.53390000  0.98466667  0.65356000  1.0
  Li+  Li13  1  0.53390000  0.98466667  0.85356000  1.0
  Li+  Li14  1  0.03390000  0.98466667  0.05356000  1.0
  Li+  Li15  1  0.03390000  0.98466667  0.45356000  1.0
  Li+  Li16  1  0.44100000  0.73446667  0.33640000  1.0
  Li+  Li17  1  0.94100000  0.73446667  0.45356000  1.0
  Li+  Li18  1  0.53390000  0.54866667  0.13640000  1.0
  Li+  Li19  1  0.03390000  0.54866667  0.53640000  1.0
  Li+  Li20  1  0.03390000  0.54866667  0.73640000  1.0
  Li+  Li21  1  0.53390000  0.54866667  0.05356000  1.0
  Li+  Li22  1  0.53390000  0.54866667  0.85356000  1.0
  Li+  Li23  1  0.03390000  0.54866667  0.65356000  1.0
  Li+  Li24  1  0.03390000  0.54866667  0.85356000  1.0
  Li+  Li25  1  0.86610000  0.73446667  0.93640000  1.0
  Li+  Li26  1  0.36610000  0.73446667  0.13640000  1.0
  Li+  Li27  1  0.86610000  0.73446667  0.62360000  1.0
  Li+  Li28  1  0.86610000  0.73446667  0.82360000  1.0
  Li+  Li29  1  0.36610000  0.73446667  0.82360000  1.0
  Li+  Li30  1  0.53390000  0.39886667  0.62360000  1.0
  Li+  Li31  1  0.44100000  0.98466667  0.58644000  1.0
  Li+  Li32  1  0.65900000  0.54866667  0.58644000  1.0
  Li+  Li33  1  0.15900000  0.54866667  0.78644000  1.0
  Li+  Li34  1  0.94100000  0.98466667  0.85356000  1.0
  Li+  Li35  1  0.44100000  0.98466667  0.05356000  1.0
  Li+  Li36  1  0.44100000  0.98466667  0.25356000  1.0
  Li+  Li37  1  0.65900000  0.54866667  0.25356000  1.0
  Li+  Li38  1  0.15900000  0.54866667  0.25356000  1.0
  Li+  Li39  1  0.15900000  0.54866667  0.45356000  1.0
  Li+  Li40  1  0.86610000  0.98466667  0.18644000  1.0
  Li+  Li41  1  0.86610000  0.98466667  0.58644000  1.0
  Li+  Li42  1  0.86610000  0.98466667  0.98644000  1.0
  Li+  Li43  1  0.36610000  0.98466667  0.38644000  1.0
  Li+  Li44  1  0.36610000  0.98466667  0.98644000  1.0
  Li+  Li45  1  0.65900000  0.39886667  0.98644000  1.0
  Li+  Li46  1  0.15900000  0.39886667  0.38644000  1.0
  Li+  Li47  1  0.36610000  0.98466667  0.22360000  1.0
  Li+  Li48  1  0.36610000  0.98466667  0.82360000  1.0
  Li+  Li49  1  0.15900000  0.39886667  0.22360000  1.0
  Li+  Li50  1  0.15900000  0.39886667  0.62360000  1.0
  Li+  Li51  1  0.86610000  0.54866667  0.18644000  1.0
  Li+  Li52  1  0.86610000  0.54866667  0.38644000  1.0
  Li+  Li53  1  0.86610000  0.54866667  0.58644000  1.0
  Li+  Li54  1  0.36610000  0.54866667  0.98644000  1.0
  Li+  Li55  1  0.94100000  0.39886667  0.18644000  1.0
  Li+  Li56  1  0.94100000  0.39886667  0.98644000  1.0
  Li+  Li57  1  0.44100000  0.39886667  0.78644000  1.0
  Li+  Li58  1  0.36610000  0.54866667  0.33640000  1.0
  Li+  Li59  1  0.15900000  0.73446667  0.42360000  1.0
  P5+  P60  1  0.75000000  0.16666667  0.10000000  1.0
  P5+  P61  1  0.75000000  0.16666667  0.30000000  1.0
  P5+  P62  1  0.75000000  0.16666667  0.50000000  1.0
  P5+  P63  1  0.75000000  0.16666667  0.70000000  1.0
  P5+  P64  1  0.75000000  0.16666667  0.90000000  1.0
  P5+  P65  1  0.25000000  0.16666667  0.10000000  1.0
  P5+  P66  1  0.25000000  0.16666667  0.30000000  1.0
  P5+  P67  1  0.25000000  0.16666667  0.50000000  1.0
  P5+  P68  1  0.25000000  0.16666667  0.70000000  1.0
  P5+  P69  1  0.25000000  0.16666667  0.90000000  1.0
  Se2-  Se70  1  0.43803265  0.04131157  0.32507102  1.0
  Se2-  Se71  1  0.87500000  0.41666667  0.65000000  1.0
  Se2-  Se72  1  0.87500000  0.41666667  0.85000000  1.0
  S2-  S73  1  0.93803265  0.04131157  0.12507102  1.0
  S2-  S74  1  0.93803265  0.04131157  0.32507102  1.0
  S2-  S75  1  0.93803265  0.04131157  0.52507102  1.0
  S2-  S76  1  0.93803265  0.04131157  0.72507102  1.0
  S2-  S77  1  0.93803265  0.04131157  0.92507102  1.0
  S2-  S78  1  0.43803265  0.04131157  0.12507102  1.0
  S2-  S79  1  0.43803265  0.04131157  0.52507102  1.0
  S2-  S80  1  0.43803265  0.04131157  0.72507102  1.0
  S2-  S81  1  0.43803265  0.04131157  0.92507102  1.0
  S2-  S82  1  0.68732245  0.04131157  0.12507102  1.0
  S2-  S83  1  0.68732245  0.04131157  0.32507102  1.0
  S2-  S84  1  0.68732245  0.04131157  0.52507102  1.0
  S2-  S85  1  0.68732245  0.04131157  0.72507102  1.0
  S2-  S86  1  0.68732245  0.04131157  0.92507102  1.0
  S2-  S87  1  0.18732245  0.04131157  0.12507102  1.0
  S2-  S88  1  0.18732245  0.04131157  0.32507102  1.0
  S2-  S89  1  0.18732245  0.04131157  0.52507102  1.0
  S2-  S90  1  0.18732245  0.04131157  0.72507102  1.0
  S2-  S91  1  0.18732245  0.04131157  0.92507102  1.0
  S2-  S92  1  0.68732245  0.04131157  0.02478694  1.0
  S2-  S93  1  0.68732245  0.04131157  0.22478694  1.0
  S2-  S94  1  0.68732245  0.04131157  0.42478694  1.0
  S2-  S95  1  0.68732245  0.04131157  0.62478694  1.0
  S2-  S96  1  0.68732245  0.04131157  0.82478694  1.0
  S2-  S97  1  0.18732245  0.04131157  0.02478694  1.0
  S2-  S98  1  0.18732245  0.04131157  0.22478694  1.0
  S2-  S99  1  0.18732245  0.04131157  0.42478694  1.0
  S2-  S100  1  0.18732245  0.04131157  0.62478694  1.0
  S2-  S101  1  0.18732245  0.04131157  0.82478694  1.0
  S2-  S102  1  0.68732245  0.54273197  0.12507102  1.0
  S2-  S103  1  0.68732245  0.54273197  0.32507102  1.0
  S2-  S104  1  0.68732245  0.54273197  0.52507102  1.0
  S2-  S105  1  0.68732245  0.54273197  0.72507102  1.0
  S2-  S106  1  0.68732245  0.54273197  0.92507102  1.0
  S2-  S107  1  0.18732245  0.54273197  0.12507102  1.0
  S2-  S108  1  0.18732245  0.54273197  0.32507102  1.0
  S2-  S109  1  0.18732245  0.54273197  0.52507102  1.0
  S2-  S110  1  0.18732245  0.54273197  0.72507102  1.0
  S2-  S111  1  0.18732245  0.54273197  0.92507102  1.0
  S2-  S112  1  0.87500000  0.41666667  0.05000000  1.0
  S2-  S113  1  0.87500000  0.41666667  0.25000000  1.0
  S2-  S114  1  0.87500000  0.41666667  0.45000000  1.0
  S2-  S115  1  0.37500000  0.41666667  0.05000000  1.0
  S2-  S116  1  0.37500000  0.41666667  0.25000000  1.0
  S2-  S117  1  0.37500000  0.41666667  0.45000000  1.0
  S2-  S118  1  0.37500000  0.41666667  0.65000000  1.0
  S2-  S119  1  0.37500000  0.41666667  0.85000000  1.0
  Br-  Br120  1  0.00000000  0.66666667  0.00000000  1.0
  Br-  Br121  1  0.00000000  0.66666667  0.20000000  1.0
  Br-  Br122  1  0.00000000  0.66666667  0.40000000  1.0
  Br-  Br123  1  0.00000000  0.66666667  0.60000000  1.0
  Br-  Br124  1  0.00000000  0.66666667  0.80000000  1.0
  Br-  Br125  1  0.50000000  0.66666667  0.00000000  1.0
  Br-  Br126  1  0.50000000  0.66666667  0.20000000  1.0
  Br-  Br127  1  0.50000000  0.66666667  0.40000000  1.0
  Br-  Br128  1  0.50000000  0.66666667  0.60000000  1.0
  Br-  Br129  1  0.50000000  0.66666667  0.80000000  1.0
