# generated using pymatgen
data_Li12La6YNb3O24
_symmetry_space_group_name_H-M   'P 1'
_cell_length_a   22.36701130
_cell_length_b   11.18350565
_cell_length_c   11.18350565
_cell_angle_alpha   109.47122063
_cell_angle_beta   70.52877937
_cell_angle_gamma   70.52877937
_symmetry_Int_Tables_number   1
_chemical_formula_structural   Li12La6YNb3O24
_chemical_formula_sum   'Li48 La24 Y4 Nb12 O96'
_cell_volume   2153.48568634
_cell_formula_units_Z   4
loop_
 _symmetry_equiv_pos_site_id
 _symmetry_equiv_pos_as_xyz
  1  'x, y, z'
loop_
 _atom_type_symbol
 _atom_type_oxidation_number
  Li+  1.0
  La3+  3.0
  Y3+  3.0
  Nb5+  5.0
  O2-  -2.0
loop_
 _atom_site_type_symbol
 _atom_site_label
 _atom_site_symmetry_multiplicity
 _atom_site_fract_x
 _atom_site_fract_y
 _atom_site_fract_z
 _atom_site_occupancy
  Li+  Li0  1  0.02188616  0.74724399  0.80090966  1.0
  Li+  Li1  1  0.52736463  0.75267694  0.80095361  1.0
  Li+  Li2  1  0.37500000  0.80230000  0.94770000  1.0
  Li+  Li3  1  0.87754010  0.80449743  0.95034499  1.0
  Li+  Li4  1  0.37284600  0.44641873  0.29869357  1.0
  Li+  Li5  1  0.87500000  0.44770000  0.30230000  1.0
  Li+  Li6  1  0.47385000  0.80230000  0.35460000  1.0
  Li+  Li7  1  0.97385000  0.80230000  0.35460000  1.0
  Li+  Li8  1  0.20393063  0.99112247  0.02102664  1.0
  Li+  Li9  1  0.70245000  0.98800000  0.02050000  1.0
  Li+  Li10  1  0.33639871  0.73007229  0.46788896  1.0
  Li+  Li11  1  0.83770000  0.72950000  0.46750000  1.0
  Li+  Li12  1  0.24400000  0.60710000  0.53250000  1.0
  Li+  Li13  1  0.73902158  0.60433332  0.52910664  1.0
  Li+  Li14  1  0.10875000  0.67540000  0.52050000  1.0
  Li+  Li15  1  0.61123139  0.67544749  0.51983480  1.0
  Li+  Li16  1  0.08374703  0.10189890  0.34748912  1.0
  Li+  Li17  1  0.58770000  0.10710000  0.34510000  1.0
  Li+  Li18  1  0.16230000  0.40490000  0.64290000  1.0
  Li+  Li19  1  0.66573437  0.40361213  0.64399570  1.0
  Li+  Li20  1  0.44645000  0.01200000  0.03250000  1.0
  Li+  Li21  1  0.94645000  0.01200000  0.03250000  1.0
  Li+  Li22  1  0.14125000  0.22950000  0.07460000  1.0
  Li+  Li23  1  0.64125000  0.22950000  0.07460000  1.0
  Li+  Li24  1  0.10875000  0.10710000  0.26200000  1.0
  Li+  Li25  1  0.60875000  0.10710000  0.26200000  1.0
  Li+  Li26  1  0.00600000  0.21750000  0.14290000  1.0
  Li+  Li27  1  0.50600000  0.21750000  0.14290000  1.0
  Li+  Li28  1  0.19645000  0.32460000  0.84510000  1.0
  Li+  Li29  1  0.69645000  0.32460000  0.84510000  1.0
  Li+  Li30  1  0.13236182  0.51026225  0.15623757  1.0
  Li+  Li31  1  0.63525000  0.51200000  0.15490000  1.0
  Li+  Li32  1  0.43750000  0.87500000  0.00000000  1.0
  Li+  Li33  1  0.93446431  0.87814068  0.00378881  1.0
  Li+  Li34  1  0.31202794  0.62712404  0.49630220  1.0
  Li+  Li35  1  0.81250000  0.62500000  0.50000000  1.0
  Li+  Li36  1  0.06250000  0.75000000  0.37500000  1.0
  Li+  Li37  1  0.56250000  0.75000000  0.37500000  1.0
  Li+  Li38  1  0.37500000  0.37500000  0.87500000  1.0
  Li+  Li39  1  0.87500000  0.37500000  0.87500000  1.0
  Li+  Li40  1  0.12500000  0.12500000  0.12500000  1.0
  Li+  Li41  1  0.62500000  0.12500000  0.12500000  1.0
  Li+  Li42  1  0.18750000  0.37500000  0.00000000  1.0
  Li+  Li43  1  0.68750000  0.37500000  0.00000000  1.0
  Li+  Li44  1  0.43750000  0.25000000  0.12500000  1.0
  Li+  Li45  1  0.93868229  0.25144050  0.11857082  1.0
  Li+  Li46  1  0.31250000  0.75000000  0.87500000  1.0
  Li+  Li47  1  0.81250000  0.75000000  0.87500000  1.0
  La3+  La48  1  0.37559612  0.62480564  0.12579694  1.0
  La3+  La49  1  0.87222343  0.62775078  0.12557382  1.0
  La3+  La50  1  0.12500000  0.87500000  0.87500000  1.0
  La3+  La51  1  0.62500000  0.87500000  0.87500000  1.0
  La3+  La52  1  0.06523519  0.62650181  0.99966295  1.0
  La3+  La53  1  0.56250000  0.62500000  0.00000000  1.0
  La3+  La54  1  0.18750000  0.87500000  0.50000000  1.0
  La3+  La55  1  0.68944243  0.87063268  0.49576045  1.0
  La3+  La56  1  0.18750000  0.75000000  0.12500000  1.0
  La3+  La57  1  0.68750000  0.75000000  0.12500000  1.0
  La3+  La58  1  0.06250000  0.25000000  0.87500000  1.0
  La3+  La59  1  0.56250000  0.25000000  0.87500000  1.0
  La3+  La60  1  0.12498079  0.37948286  0.37647296  1.0
  La3+  La61  1  0.62500000  0.37500000  0.37500000  1.0
  La3+  La62  1  0.37153672  0.12477099  0.62466851  1.0
  La3+  La63  1  0.87500000  0.12500000  0.62500000  1.0
  La3+  La64  1  0.43750000  0.37500000  0.50000000  1.0
  La3+  La65  1  0.93750000  0.37500000  0.50000000  1.0
  La3+  La66  1  0.31250000  0.12500000  0.00000000  1.0
  La3+  La67  1  0.81250000  0.12500000  0.00000000  1.0
  La3+  La68  1  0.31250000  0.25000000  0.37500000  1.0
  La3+  La69  1  0.81250000  0.25000000  0.37500000  1.0
  La3+  La70  1  0.43750000  0.75000000  0.62500000  1.0
  La3+  La71  1  0.93750000  0.75000000  0.62500000  1.0
  Y3+  Y72  1  0.00000000  0.00000000  0.25000000  1.0
  Y3+  Y73  1  0.50000000  0.00000000  0.25000000  1.0
  Y3+  Y74  1  0.00000000  0.50000000  0.25000000  1.0
  Y3+  Y75  1  0.50000000  0.50000000  0.25000000  1.0
  Nb5+  Nb76  1  0.00000000  0.50000000  0.75000000  1.0
  Nb5+  Nb77  1  0.50000000  0.50000000  0.75000000  1.0
  Nb5+  Nb78  1  0.25215542  0.50129030  0.25096833  1.0
  Nb5+  Nb79  1  0.75000000  0.50000000  0.25000000  1.0
  Nb5+  Nb80  1  0.25169599  0.00132482  0.75094015  1.0
  Nb5+  Nb81  1  0.75000000  0.00000000  0.75000000  1.0
  Nb5+  Nb82  1  0.24765253  0.50308553  0.74854214  1.0
  Nb5+  Nb83  1  0.75000000  0.50000000  0.75000000  1.0
  Nb5+  Nb84  1  0.25000000  0.00000000  0.25000000  1.0
  Nb5+  Nb85  1  0.75000000  0.00000000  0.25000000  1.0
  Nb5+  Nb86  1  0.00000000  0.00000000  0.75000000  1.0
  Nb5+  Nb87  1  0.50000000  0.00000000  0.75000000  1.0
  O2-  O88  1  0.45032639  0.68854282  0.23778441  1.0
  O2-  O89  1  0.95200000  0.68740000  0.23520000  1.0
  O2-  O90  1  0.29800000  0.88920000  0.34140000  1.0
  O2-  O91  1  0.79800000  0.88920000  0.34140000  1.0
  O2-  O92  1  0.14890000  0.61080000  0.76480000  1.0
  O2-  O93  1  0.64851530  0.60827172  0.76440241  1.0
  O2-  O94  1  0.10110000  0.81260000  0.65860000  1.0
  O2-  O95  1  0.60110000  0.81260000  0.65860000  1.0
  O2-  O96  1  0.19460000  0.51480000  0.95220000  1.0
  O2-  O97  1  0.69790436  0.52162267  0.94803600  1.0
  O2-  O98  1  0.09370000  0.40860000  0.04780000  1.0
  O2-  O99  1  0.59290135  0.41841038  0.04517278  1.0
  O2-  O100  1  0.15963398  0.99001004  0.34624919  1.0
  O2-  O101  1  0.65630000  0.98520000  0.34600000  1.0
  O2-  O102  1  0.05540000  0.09140000  0.65400000  1.0
  O2-  O103  1  0.55540000  0.09140000  0.65400000  1.0
  O2-  O104  1  0.29570000  0.79780000  0.06260000  1.0
  O2-  O105  1  0.79570000  0.79780000  0.06260000  1.0
  O2-  O106  1  0.24260000  0.70220000  0.86080000  1.0
  O2-  O107  1  0.74260000  0.70220000  0.86080000  1.0
  O2-  O108  1  0.45430000  0.40400000  0.13920000  1.0
  O2-  O109  1  0.95430000  0.40400000  0.13920000  1.0
  O2-  O110  1  0.00740000  0.09600000  0.93740000  1.0
  O2-  O111  1  0.50740000  0.09600000  0.93740000  1.0
  O2-  O112  1  0.04800000  0.31260000  0.26480000  1.0
  O2-  O113  1  0.54674210  0.31452513  0.26196227  1.0
  O2-  O114  1  0.20261735  0.10730492  0.15970638  1.0
  O2-  O115  1  0.69926536  0.11139179  0.15315546  1.0
  O2-  O116  1  0.35110000  0.38920000  0.73520000  1.0
  O2-  O117  1  0.85110000  0.38920000  0.73520000  1.0
  O2-  O118  1  0.39890000  0.18740000  0.84140000  1.0
  O2-  O119  1  0.89890000  0.18740000  0.84140000  1.0
  O2-  O120  1  0.30384153  0.48418567  0.55001115  1.0
  O2-  O121  1  0.80540000  0.48520000  0.54780000  1.0
  O2-  O122  1  0.40900970  0.59248266  0.45325168  1.0
  O2-  O123  1  0.90630000  0.59140000  0.45220000  1.0
  O2-  O124  1  0.34370000  0.01480000  0.15400000  1.0
  O2-  O125  1  0.84370000  0.01480000  0.15400000  1.0
  O2-  O126  1  0.44460000  0.90860000  0.84600000  1.0
  O2-  O127  1  0.94460000  0.90860000  0.84600000  1.0
  O2-  O128  1  0.20430000  0.20220000  0.43740000  1.0
  O2-  O129  1  0.70430000  0.20220000  0.43740000  1.0
  O2-  O130  1  0.25740000  0.29780000  0.63920000  1.0
  O2-  O131  1  0.76063525  0.29658023  0.64200689  1.0
  O2-  O132  1  0.04570000  0.59600000  0.36080000  1.0
  O2-  O133  1  0.54570000  0.59600000  0.36080000  1.0
  O2-  O134  1  0.49190801  0.90367707  0.55986585  1.0
  O2-  O135  1  0.99260000  0.90400000  0.56260000  1.0
  O2-  O136  1  0.04570000  0.31260000  0.54780000  1.0
  O2-  O137  1  0.54570000  0.31260000  0.54780000  1.0
  O2-  O138  1  0.48981705  0.11923282  0.45396354  1.0
  O2-  O139  1  0.99427581  0.11681577  0.45035810  1.0
  O2-  O140  1  0.20570639  0.38713015  0.14902079  1.0
  O2-  O141  1  0.70430000  0.38920000  0.15400000  1.0
  O2-  O142  1  0.25740000  0.18740000  0.84600000  1.0
  O2-  O143  1  0.75740000  0.18740000  0.84600000  1.0
  O2-  O144  1  0.20200000  0.48520000  0.43740000  1.0
  O2-  O145  1  0.70200000  0.48520000  0.43740000  1.0
  O2-  O146  1  0.04800000  0.59140000  0.63920000  1.0
  O2-  O147  1  0.54800000  0.59140000  0.63920000  1.0
  O2-  O148  1  0.39890000  0.01480000  0.36080000  1.0
  O2-  O149  1  0.89890000  0.01480000  0.36080000  1.0
  O2-  O150  1  0.35110000  0.90860000  0.56260000  1.0
  O2-  O151  1  0.85110000  0.90860000  0.56260000  1.0
  O2-  O152  1  0.44460000  0.20220000  0.26480000  1.0
  O2-  O153  1  0.94460000  0.20220000  0.26480000  1.0
  O2-  O154  1  0.34699874  0.29610979  0.15766634  1.0
  O2-  O155  1  0.84370000  0.29780000  0.15860000  1.0
  O2-  O156  1  0.40630000  0.59600000  0.73520000  1.0
  O2-  O157  1  0.90630000  0.59600000  0.73520000  1.0
  O2-  O158  1  0.30540000  0.90400000  0.84140000  1.0
  O2-  O159  1  0.80540000  0.90400000  0.84140000  1.0
  O2-  O160  1  0.45430000  0.68740000  0.95220000  1.0
  O2-  O161  1  0.95890135  0.69033900  0.95031242  1.0
  O2-  O162  1  0.00740000  0.88920000  0.04780000  1.0
  O2-  O163  1  0.50751862  0.88941483  0.04476598  1.0
  O2-  O164  1  0.29570000  0.61080000  0.34600000  1.0
  O2-  O165  1  0.79570000  0.61080000  0.34600000  1.0
  O2-  O166  1  0.24260000  0.81260000  0.65400000  1.0
  O2-  O167  1  0.74260000  0.81260000  0.65400000  1.0
  O2-  O168  1  0.29800000  0.51480000  0.06260000  1.0
  O2-  O169  1  0.79800000  0.51480000  0.06260000  1.0
  O2-  O170  1  0.45274378  0.40621884  0.86256933  1.0
  O2-  O171  1  0.95200000  0.40860000  0.86080000  1.0
  O2-  O172  1  0.10110000  0.98520000  0.13920000  1.0
  O2-  O173  1  0.60110000  0.98520000  0.13920000  1.0
  O2-  O174  1  0.14890000  0.09140000  0.93740000  1.0
  O2-  O175  1  0.64890000  0.09140000  0.93740000  1.0
  O2-  O176  1  0.05671172  0.79652418  0.23454543  1.0
  O2-  O177  1  0.55540000  0.79780000  0.23520000  1.0
  O2-  O178  1  0.15671678  0.70006365  0.34297452  1.0
  O2-  O179  1  0.65725801  0.70529206  0.33850736  1.0
  O2-  O180  1  0.09370000  0.40400000  0.76480000  1.0
  O2-  O181  1  0.59370000  0.40400000  0.76480000  1.0
  O2-  O182  1  0.19460000  0.09600000  0.65860000  1.0
  O2-  O183  1  0.69501731  0.09335773  0.66048102  1.0
