# generated using pymatgen
data_Li12La6YNb3O24
_symmetry_space_group_name_H-M   'P 1'
_cell_length_a   11.25190230
_cell_length_b   22.50380459
_cell_length_c   11.25190230
_cell_angle_alpha   70.52877937
_cell_angle_beta   70.52877937
_cell_angle_gamma   109.47122063
_symmetry_Int_Tables_number   1
_chemical_formula_structural   Li12La6YNb3O24
_chemical_formula_sum   'Li48 La24 Y4 Nb12 O96'
_cell_volume   2193.23901285
_cell_formula_units_Z   4
loop_
 _symmetry_equiv_pos_site_id
 _symmetry_equiv_pos_as_xyz
  1  'x, y, z'
loop_
 _atom_type_symbol
 _atom_type_oxidation_number
  Li+  1.0
  La3+  3.0
  Y3+  3.0
  Nb5+  5.0
  O2-  -2.0
loop_
 _atom_site_type_symbol
 _atom_site_label
 _atom_site_symmetry_multiplicity
 _atom_site_fract_x
 _atom_site_fract_y
 _atom_site_fract_z
 _atom_site_occupancy
  Li+  Li0  1  0.05230000  0.64051667  0.25000000  1.0
  Li+  Li1  1  0.05230000  0.14051667  0.25000000  1.0
  Li+  Li2  1  0.19770000  0.29166667  0.19770000  1.0
  Li+  Li3  1  0.19770000  0.79166667  0.19770000  1.0
  Li+  Li4  1  0.55230000  0.29166667  0.55230000  1.0
  Li+  Li5  1  0.55230000  0.79166667  0.55230000  1.0
  Li+  Li6  1  0.60460000  0.19281667  0.19770000  1.0
  Li+  Li7  1  0.60460000  0.69281667  0.19770000  1.0
  Li+  Li8  1  0.27050000  0.46421667  0.01200000  1.0
  Li+  Li9  1  0.27050000  0.96421667  0.01200000  1.0
  Li+  Li10  1  0.71750000  0.32896667  0.27050000  1.0
  Li+  Li11  1  0.71750000  0.82896667  0.27050000  1.0
  Li+  Li12  1  0.78250000  0.42266667  0.39290000  1.0
  Li+  Li13  1  0.78250000  0.92266667  0.39290000  1.0
  Li+  Li14  1  0.77050000  0.55791667  0.32460000  1.0
  Li+  Li15  1  0.77050000  0.05791667  0.32460000  1.0
  Li+  Li16  1  0.59510000  0.57896667  0.89290000  1.0
  Li+  Li17  1  0.59510000  0.07896667  0.89290000  1.0
  Li+  Li18  1  0.89290000  0.50436667  0.59510000  1.0
  Li+  Li19  1  0.89290000  0.00436667  0.59510000  1.0
  Li+  Li20  1  0.28250000  0.22021667  0.98800000  1.0
  Li+  Li21  1  0.28250000  0.72021667  0.98800000  1.0
  Li+  Li22  1  0.32460000  0.52541667  0.77050000  1.0
  Li+  Li23  1  0.32460000  0.02541667  0.77050000  1.0
  Li+  Li24  1  0.51200000  0.55791667  0.89290000  1.0
  Li+  Li25  1  0.51200000  0.05791667  0.89290000  1.0
  Li+  Li26  1  0.39290000  0.66066667  0.78250000  1.0
  Li+  Li27  1  0.39290000  0.16066667  0.78250000  1.0
  Li+  Li28  1  0.09510000  0.47021667  0.67540000  1.0
  Li+  Li29  1  0.09510000  0.97021667  0.67540000  1.0
  Li+  Li30  1  0.40490000  0.53141667  0.48800000  1.0
  Li+  Li31  1  0.40490000  0.03141667  0.48800000  1.0
  Li+  Li32  1  0.25000000  0.22916667  0.12500000  1.0
  Li+  Li33  1  0.25000000  0.72916667  0.12500000  1.0
  Li+  Li34  1  0.75000000  0.35416667  0.37500000  1.0
  Li+  Li35  1  0.75000000  0.85416667  0.37500000  1.0
  Li+  Li36  1  0.62500000  0.60416667  0.25000000  1.0
  Li+  Li37  1  0.62500000  0.10416667  0.25000000  1.0
  Li+  Li38  1  0.12500000  0.29166667  0.62500000  1.0
  Li+  Li39  1  0.12500000  0.79166667  0.62500000  1.0
  Li+  Li40  1  0.37500000  0.54166667  0.87500000  1.0
  Li+  Li41  1  0.37500000  0.04166667  0.87500000  1.0
  Li+  Li42  1  0.25000000  0.47916667  0.62500000  1.0
  Li+  Li43  1  0.25000000  0.97916667  0.62500000  1.0
  Li+  Li44  1  0.37500000  0.22916667  0.75000000  1.0
  Li+  Li45  1  0.37500000  0.72916667  0.75000000  1.0
  Li+  Li46  1  0.12500000  0.35416667  0.25000000  1.0
  Li+  Li47  1  0.12500000  0.85416667  0.25000000  1.0
  La3+  La48  1  0.37500000  0.29166667  0.37500000  1.0
  La3+  La49  1  0.37500000  0.79166667  0.37500000  1.0
  La3+  La50  1  0.12500000  0.54166667  0.12500000  1.0
  La3+  La51  1  0.12500000  0.04166667  0.12500000  1.0
  La3+  La52  1  0.25000000  0.60416667  0.37500000  1.0
  La3+  La53  1  0.25000000  0.10416667  0.37500000  1.0
  La3+  La54  1  0.75000000  0.47916667  0.12500000  1.0
  La3+  La55  1  0.75000000  0.97916667  0.12500000  1.0
  La3+  La56  1  0.37500000  0.47916667  0.25000000  1.0
  La3+  La57  1  0.37500000  0.97916667  0.25000000  1.0
  La3+  La58  1  0.12500000  0.60416667  0.75000000  1.0
  La3+  La59  1  0.12500000  0.10416667  0.75000000  1.0
  La3+  La60  1  0.62500000  0.54166667  0.62500000  1.0
  La3+  La61  1  0.62500000  0.04166667  0.62500000  1.0
  La3+  La62  1  0.87500000  0.29166667  0.87500000  1.0
  La3+  La63  1  0.87500000  0.79166667  0.87500000  1.0
  La3+  La64  1  0.75000000  0.22916667  0.62500000  1.0
  La3+  La65  1  0.75000000  0.72916667  0.62500000  1.0
  La3+  La66  1  0.25000000  0.35416667  0.87500000  1.0
  La3+  La67  1  0.25000000  0.85416667  0.87500000  1.0
  La3+  La68  1  0.62500000  0.35416667  0.75000000  1.0
  La3+  La69  1  0.62500000  0.85416667  0.75000000  1.0
  La3+  La70  1  0.87500000  0.22916667  0.25000000  1.0
  La3+  La71  1  0.87500000  0.72916667  0.25000000  1.0
  Y3+  Y72  1  0.50000000  0.66666667  0.00000000  1.0
  Y3+  Y73  1  0.50000000  0.16666667  0.00000000  1.0
  Y3+  Y74  1  0.50000000  0.66666667  0.50000000  1.0
  Y3+  Y75  1  0.50000000  0.16666667  0.50000000  1.0
  Nb5+  Nb76  1  0.00000000  0.66666667  0.50000000  1.0
  Nb5+  Nb77  1  0.00000000  0.16666667  0.50000000  1.0
  Nb5+  Nb78  1  0.50000000  0.41666667  0.50000000  1.0
  Nb5+  Nb79  1  0.50000000  0.91666667  0.50000000  1.0
  Nb5+  Nb80  1  0.00000000  0.41666667  0.00000000  1.0
  Nb5+  Nb81  1  0.00000000  0.91666667  0.00000000  1.0
  Nb5+  Nb82  1  0.00000000  0.41666667  0.50000000  1.0
  Nb5+  Nb83  1  0.00000000  0.91666667  0.50000000  1.0
  Nb5+  Nb84  1  0.50000000  0.41666667  0.00000000  1.0
  Nb5+  Nb85  1  0.50000000  0.91666667  0.00000000  1.0
  Nb5+  Nb86  1  0.00000000  0.66666667  0.00000000  1.0
  Nb5+  Nb87  1  0.00000000  0.16666667  0.00000000  1.0
  O2-  O88  1  0.48520000  0.21466667  0.31260000  1.0
  O2-  O89  1  0.48520000  0.71466667  0.31260000  1.0
  O2-  O90  1  0.59140000  0.36866667  0.11080000  1.0
  O2-  O91  1  0.59140000  0.86866667  0.11080000  1.0
  O2-  O92  1  0.01480000  0.51776667  0.38920000  1.0
  O2-  O93  1  0.01480000  0.01776667  0.38920000  1.0
  O2-  O94  1  0.90860000  0.56556667  0.18740000  1.0
  O2-  O95  1  0.90860000  0.06556667  0.18740000  1.0
  O2-  O96  1  0.20220000  0.47206667  0.48520000  1.0
  O2-  O97  1  0.20220000  0.97206667  0.48520000  1.0
  O2-  O98  1  0.29780000  0.57296667  0.59140000  1.0
  O2-  O99  1  0.29780000  0.07296667  0.59140000  1.0
  O2-  O100  1  0.59600000  0.51036667  0.01480000  1.0
  O2-  O101  1  0.59600000  0.01036667  0.01480000  1.0
  O2-  O102  1  0.90400000  0.61126667  0.90860000  1.0
  O2-  O103  1  0.90400000  0.11126667  0.90860000  1.0
  O2-  O104  1  0.31260000  0.37096667  0.20220000  1.0
  O2-  O105  1  0.31260000  0.87096667  0.20220000  1.0
  O2-  O106  1  0.11080000  0.42406667  0.29780000  1.0
  O2-  O107  1  0.11080000  0.92406667  0.29780000  1.0
  O2-  O108  1  0.38920000  0.21236667  0.59600000  1.0
  O2-  O109  1  0.38920000  0.71236667  0.59600000  1.0
  O2-  O110  1  0.18740000  0.65926667  0.90400000  1.0
  O2-  O111  1  0.18740000  0.15926667  0.90400000  1.0
  O2-  O112  1  0.51480000  0.61866667  0.68740000  1.0
  O2-  O113  1  0.51480000  0.11866667  0.68740000  1.0
  O2-  O114  1  0.40860000  0.46466667  0.88920000  1.0
  O2-  O115  1  0.40860000  0.96466667  0.88920000  1.0
  O2-  O116  1  0.98520000  0.31556667  0.61080000  1.0
  O2-  O117  1  0.98520000  0.81556667  0.61080000  1.0
  O2-  O118  1  0.09140000  0.26776667  0.81260000  1.0
  O2-  O119  1  0.09140000  0.76776667  0.81260000  1.0
  O2-  O120  1  0.79780000  0.36126667  0.51480000  1.0
  O2-  O121  1  0.79780000  0.86126667  0.51480000  1.0
  O2-  O122  1  0.70220000  0.26036667  0.40860000  1.0
  O2-  O123  1  0.70220000  0.76036667  0.40860000  1.0
  O2-  O124  1  0.40400000  0.32296667  0.98520000  1.0
  O2-  O125  1  0.40400000  0.82296667  0.98520000  1.0
  O2-  O126  1  0.09600000  0.22206667  0.09140000  1.0
  O2-  O127  1  0.09600000  0.72206667  0.09140000  1.0
  O2-  O128  1  0.68740000  0.46236667  0.79780000  1.0
  O2-  O129  1  0.68740000  0.96236667  0.79780000  1.0
  O2-  O130  1  0.88920000  0.40926667  0.70220000  1.0
  O2-  O131  1  0.88920000  0.90926667  0.70220000  1.0
  O2-  O132  1  0.61080000  0.62096667  0.40400000  1.0
  O2-  O133  1  0.61080000  0.12096667  0.40400000  1.0
  O2-  O134  1  0.81260000  0.17406667  0.09600000  1.0
  O2-  O135  1  0.81260000  0.67406667  0.09600000  1.0
  O2-  O136  1  0.79780000  0.62096667  0.68740000  1.0
  O2-  O137  1  0.79780000  0.12096667  0.68740000  1.0
  O2-  O138  1  0.70220000  0.17406667  0.88920000  1.0
  O2-  O139  1  0.70220000  0.67406667  0.88920000  1.0
  O2-  O140  1  0.40400000  0.46236667  0.61080000  1.0
  O2-  O141  1  0.40400000  0.96236667  0.61080000  1.0
  O2-  O142  1  0.09600000  0.40926667  0.81260000  1.0
  O2-  O143  1  0.09600000  0.90926667  0.81260000  1.0
  O2-  O144  1  0.68740000  0.46466667  0.51480000  1.0
  O2-  O145  1  0.68740000  0.96466667  0.51480000  1.0
  O2-  O146  1  0.88920000  0.61866667  0.40860000  1.0
  O2-  O147  1  0.88920000  0.11866667  0.40860000  1.0
  O2-  O148  1  0.61080000  0.26776667  0.98520000  1.0
  O2-  O149  1  0.61080000  0.76776667  0.98520000  1.0
  O2-  O150  1  0.81260000  0.31556667  0.09140000  1.0
  O2-  O151  1  0.81260000  0.81556667  0.09140000  1.0
  O2-  O152  1  0.51480000  0.22206667  0.79780000  1.0
  O2-  O153  1  0.51480000  0.72206667  0.79780000  1.0
  O2-  O154  1  0.40860000  0.32296667  0.70220000  1.0
  O2-  O155  1  0.40860000  0.82296667  0.70220000  1.0
  O2-  O156  1  0.98520000  0.26036667  0.40400000  1.0
  O2-  O157  1  0.98520000  0.76036667  0.40400000  1.0
  O2-  O158  1  0.09140000  0.36126667  0.09600000  1.0
  O2-  O159  1  0.09140000  0.86126667  0.09600000  1.0
  O2-  O160  1  0.20220000  0.21236667  0.31260000  1.0
  O2-  O161  1  0.20220000  0.71236667  0.31260000  1.0
  O2-  O162  1  0.29780000  0.65926667  0.11080000  1.0
  O2-  O163  1  0.29780000  0.15926667  0.11080000  1.0
  O2-  O164  1  0.59600000  0.37096667  0.38920000  1.0
  O2-  O165  1  0.59600000  0.87096667  0.38920000  1.0
  O2-  O166  1  0.90400000  0.42406667  0.18740000  1.0
  O2-  O167  1  0.90400000  0.92406667  0.18740000  1.0
  O2-  O168  1  0.31260000  0.36866667  0.48520000  1.0
  O2-  O169  1  0.31260000  0.86866667  0.48520000  1.0
  O2-  O170  1  0.11080000  0.21466667  0.59140000  1.0
  O2-  O171  1  0.11080000  0.71466667  0.59140000  1.0
  O2-  O172  1  0.38920000  0.56556667  0.01480000  1.0
  O2-  O173  1  0.38920000  0.06556667  0.01480000  1.0
  O2-  O174  1  0.18740000  0.51776667  0.90860000  1.0
  O2-  O175  1  0.18740000  0.01776667  0.90860000  1.0
  O2-  O176  1  0.48520000  0.61126667  0.20220000  1.0
  O2-  O177  1  0.48520000  0.11126667  0.20220000  1.0
  O2-  O178  1  0.59140000  0.51036667  0.29780000  1.0
  O2-  O179  1  0.59140000  0.01036667  0.29780000  1.0
  O2-  O180  1  0.01480000  0.57296667  0.59600000  1.0
  O2-  O181  1  0.01480000  0.07296667  0.59600000  1.0
  O2-  O182  1  0.90860000  0.47206667  0.90400000  1.0
  O2-  O183  1  0.90860000  0.97206667  0.90400000  1.0
