# generated using pymatgen
data_Li12La6YNb3O24
_symmetry_space_group_name_H-M   'P 1'
_cell_length_a   22.36701130
_cell_length_b   11.18350565
_cell_length_c   11.18350565
_cell_angle_alpha   109.47122063
_cell_angle_beta   109.47122063
_cell_angle_gamma   109.47122063
_symmetry_Int_Tables_number   1
_chemical_formula_structural   Li12La6YNb3O24
_chemical_formula_sum   'Li48 La24 Y4 Nb12 O96'
_cell_volume   2153.48568634
_cell_formula_units_Z   4
loop_
 _symmetry_equiv_pos_site_id
 _symmetry_equiv_pos_as_xyz
  1  'x, y, z'
loop_
 _atom_type_symbol
 _atom_type_oxidation_number
  Li+  1.0
  La3+  3.0
  Y3+  3.0
  Nb5+  5.0
  O2-  -2.0
loop_
 _atom_site_type_symbol
 _atom_site_label
 _atom_site_symmetry_multiplicity
 _atom_site_fract_x
 _atom_site_fract_y
 _atom_site_fract_z
 _atom_site_occupancy
  Li+  Li0  1  0.02615000  0.94770000  0.25000000  1.0
  Li+  Li0  1  0.52615000  0.94770000  0.25000000  1.0
  Li+  Li1  1  0.37500000  0.80230000  0.19770000  1.0
  Li+  Li1  1  0.87500000  0.80230000  0.19770000  1.0
  Li+  Li2  1  0.37500000  0.44770000  0.55230000  1.0
  Li+  Li2  1  0.87500000  0.44770000  0.55230000  1.0
  Li+  Li3  1  0.47385000  0.39540000  0.19770000  1.0
  Li+  Li3  1  0.97385000  0.39540000  0.19770000  1.0
  Li+  Li4  1  0.20245000  0.72950000  0.01200000  1.0
  Li+  Li4  1  0.70245000  0.72950000  0.01200000  1.0
  Li+  Li5  1  0.33770000  0.28250000  0.27050000  1.0
  Li+  Li5  1  0.83770000  0.28250000  0.27050000  1.0
  Li+  Li6  1  0.24400000  0.21750000  0.39290000  1.0
  Li+  Li6  1  0.74400000  0.21750000  0.39290000  1.0
  Li+  Li7  1  0.10875000  0.22950000  0.32460000  1.0
  Li+  Li7  1  0.60875000  0.22950000  0.32460000  1.0
  Li+  Li8  1  0.08770000  0.40490000  0.89290000  1.0
  Li+  Li8  1  0.58770000  0.40490000  0.89290000  1.0
  Li+  Li9  1  0.16230000  0.10710000  0.59510000  1.0
  Li+  Li9  1  0.66230000  0.10710000  0.59510000  1.0
  Li+  Li10  1  0.44645000  0.71750000  0.98800000  1.0
  Li+  Li10  1  0.94645000  0.71750000  0.98800000  1.0
  Li+  Li11  1  0.14125000  0.67540000  0.77050000  1.0
  Li+  Li11  1  0.64125000  0.67540000  0.77050000  1.0
  Li+  Li12  1  0.10875000  0.48800000  0.89290000  1.0
  Li+  Li12  1  0.60875000  0.48800000  0.89290000  1.0
  Li+  Li13  1  0.00600000  0.60710000  0.78250000  1.0
  Li+  Li13  1  0.50600000  0.60710000  0.78250000  1.0
  Li+  Li14  1  0.19645000  0.90490000  0.67540000  1.0
  Li+  Li14  1  0.69645000  0.90490000  0.67540000  1.0
  Li+  Li15  1  0.13525000  0.59510000  0.48800000  1.0
  Li+  Li15  1  0.63525000  0.59510000  0.48800000  1.0
  Li+  Li16  1  0.43750000  0.75000000  0.12500000  1.0
  Li+  Li16  1  0.93750000  0.75000000  0.12500000  1.0
  Li+  Li17  1  0.31250000  0.25000000  0.37500000  1.0
  Li+  Li17  1  0.81250000  0.25000000  0.37500000  1.0
  Li+  Li18  1  0.06250000  0.37500000  0.25000000  1.0
  Li+  Li18  1  0.56250000  0.37500000  0.25000000  1.0
  Li+  Li19  1  0.37500000  0.87500000  0.62500000  1.0
  Li+  Li19  1  0.87500000  0.87500000  0.62500000  1.0
  Li+  Li20  1  0.12500000  0.62500000  0.87500000  1.0
  Li+  Li20  1  0.62500000  0.62500000  0.87500000  1.0
  Li+  Li21  1  0.18750000  0.75000000  0.62500000  1.0
  Li+  Li21  1  0.68750000  0.75000000  0.62500000  1.0
  Li+  Li22  1  0.43750000  0.62500000  0.75000000  1.0
  Li+  Li22  1  0.93750000  0.62500000  0.75000000  1.0
  Li+  Li23  1  0.31250000  0.87500000  0.25000000  1.0
  Li+  Li23  1  0.81250000  0.87500000  0.25000000  1.0
  La3+  La1  1  0.37500000  0.62500000  0.37500000  1.0
  La3+  La1  1  0.87500000  0.62500000  0.37500000  1.0
  La3+  La1  1  0.12500000  0.87500000  0.12500000  1.0
  La3+  La1  1  0.62500000  0.87500000  0.12500000  1.0
  La3+  La1  1  0.06250000  0.75000000  0.37500000  1.0
  La3+  La1  1  0.56250000  0.75000000  0.37500000  1.0
  La3+  La1  1  0.18750000  0.25000000  0.12500000  1.0
  La3+  La1  1  0.68750000  0.25000000  0.12500000  1.0
  La3+  La1  1  0.18750000  0.62500000  0.25000000  1.0
  La3+  La1  1  0.68750000  0.62500000  0.25000000  1.0
  La3+  La1  1  0.06250000  0.87500000  0.75000000  1.0
  La3+  La1  1  0.56250000  0.87500000  0.75000000  1.0
  La3+  La1  1  0.12500000  0.37500000  0.62500000  1.0
  La3+  La1  1  0.62500000  0.37500000  0.62500000  1.0
  La3+  La1  1  0.37500000  0.12500000  0.87500000  1.0
  La3+  La1  1  0.87500000  0.12500000  0.87500000  1.0
  La3+  La1  1  0.43750000  0.25000000  0.62500000  1.0
  La3+  La1  1  0.93750000  0.25000000  0.62500000  1.0
  La3+  La1  1  0.31250000  0.75000000  0.87500000  1.0
  La3+  La1  1  0.81250000  0.75000000  0.87500000  1.0
  La3+  La1  1  0.31250000  0.37500000  0.75000000  1.0
  La3+  La1  1  0.81250000  0.37500000  0.75000000  1.0
  La3+  La1  1  0.43750000  0.12500000  0.25000000  1.0
  La3+  La1  1  0.93750000  0.12500000  0.25000000  1.0
  Y3+  Y36  1  0.00000000  0.50000000  0.00000000  1.0
  Y3+  Y36  1  0.50000000  0.50000000  0.00000000  1.0
  Y3+  Y37  1  0.00000000  0.50000000  0.50000000  1.0
  Y3+  Y37  1  0.50000000  0.50000000  0.50000000  1.0
  Nb5+  Nb38  1  0.00000000  0.00000000  0.50000000  1.0
  Nb5+  Nb38  1  0.50000000  0.00000000  0.50000000  1.0
  Nb5+  Nb39  1  0.25000000  0.50000000  0.50000000  1.0
  Nb5+  Nb39  1  0.75000000  0.50000000  0.50000000  1.0
  Nb5+  Nb40  1  0.25000000  0.00000000  0.00000000  1.0
  Nb5+  Nb40  1  0.75000000  0.00000000  0.00000000  1.0
  Nb5+  Nb41  1  0.25000000  0.00000000  0.50000000  1.0
  Nb5+  Nb41  1  0.75000000  0.00000000  0.50000000  1.0
  Nb5+  Nb42  1  0.25000000  0.50000000  0.00000000  1.0
  Nb5+  Nb42  1  0.75000000  0.50000000  0.00000000  1.0
  Nb5+  Nb43  1  0.00000000  0.00000000  0.00000000  1.0
  Nb5+  Nb43  1  0.50000000  0.00000000  0.00000000  1.0
  O2-  O1  1  0.45200000  0.51480000  0.31260000  1.0
  O2-  O1  1  0.95200000  0.51480000  0.31260000  1.0
  O2-  O1  1  0.29800000  0.40860000  0.11080000  1.0
  O2-  O1  1  0.79800000  0.40860000  0.11080000  1.0
  O2-  O1  1  0.14890000  0.98520000  0.38920000  1.0
  O2-  O1  1  0.64890000  0.98520000  0.38920000  1.0
  O2-  O1  1  0.10110000  0.09140000  0.18740000  1.0
  O2-  O1  1  0.60110000  0.09140000  0.18740000  1.0
  O2-  O1  1  0.19460000  0.79780000  0.48520000  1.0
  O2-  O1  1  0.69460000  0.79780000  0.48520000  1.0
  O2-  O1  1  0.09370000  0.70220000  0.59140000  1.0
  O2-  O1  1  0.59370000  0.70220000  0.59140000  1.0
  O2-  O1  1  0.15630000  0.40400000  0.01480000  1.0
  O2-  O1  1  0.65630000  0.40400000  0.01480000  1.0
  O2-  O1  1  0.05540000  0.09600000  0.90860000  1.0
  O2-  O1  1  0.55540000  0.09600000  0.90860000  1.0
  O2-  O1  1  0.29570000  0.68740000  0.20220000  1.0
  O2-  O1  1  0.79570000  0.68740000  0.20220000  1.0
  O2-  O1  1  0.24260000  0.88920000  0.29780000  1.0
  O2-  O1  1  0.74260000  0.88920000  0.29780000  1.0
  O2-  O1  1  0.45430000  0.61080000  0.59600000  1.0
  O2-  O1  1  0.95430000  0.61080000  0.59600000  1.0
  O2-  O1  1  0.00740000  0.81260000  0.90400000  1.0
  O2-  O1  1  0.50740000  0.81260000  0.90400000  1.0
  O2-  O1  1  0.04800000  0.48520000  0.68740000  1.0
  O2-  O1  1  0.54800000  0.48520000  0.68740000  1.0
  O2-  O1  1  0.20200000  0.59140000  0.88920000  1.0
  O2-  O1  1  0.70200000  0.59140000  0.88920000  1.0
  O2-  O1  1  0.35110000  0.01480000  0.61080000  1.0
  O2-  O1  1  0.85110000  0.01480000  0.61080000  1.0
  O2-  O1  1  0.39890000  0.90860000  0.81260000  1.0
  O2-  O1  1  0.89890000  0.90860000  0.81260000  1.0
  O2-  O1  1  0.30540000  0.20220000  0.51480000  1.0
  O2-  O1  1  0.80540000  0.20220000  0.51480000  1.0
  O2-  O1  1  0.40630000  0.29780000  0.40860000  1.0
  O2-  O1  1  0.90630000  0.29780000  0.40860000  1.0
  O2-  O1  1  0.34370000  0.59600000  0.98520000  1.0
  O2-  O1  1  0.84370000  0.59600000  0.98520000  1.0
  O2-  O1  1  0.44460000  0.90400000  0.09140000  1.0
  O2-  O1  1  0.94460000  0.90400000  0.09140000  1.0
  O2-  O1  1  0.20430000  0.31260000  0.79780000  1.0
  O2-  O1  1  0.70430000  0.31260000  0.79780000  1.0
  O2-  O1  1  0.25740000  0.11080000  0.70220000  1.0
  O2-  O1  1  0.75740000  0.11080000  0.70220000  1.0
  O2-  O1  1  0.04570000  0.38920000  0.40400000  1.0
  O2-  O1  1  0.54570000  0.38920000  0.40400000  1.0
  O2-  O1  1  0.49260000  0.18740000  0.09600000  1.0
  O2-  O1  1  0.99260000  0.18740000  0.09600000  1.0
  O2-  O1  1  0.04570000  0.20220000  0.68740000  1.0
  O2-  O1  1  0.54570000  0.20220000  0.68740000  1.0
  O2-  O1  1  0.49260000  0.29780000  0.88920000  1.0
  O2-  O1  1  0.99260000  0.29780000  0.88920000  1.0
  O2-  O1  1  0.20430000  0.59600000  0.61080000  1.0
  O2-  O1  1  0.70430000  0.59600000  0.61080000  1.0
  O2-  O1  1  0.25740000  0.90400000  0.81260000  1.0
  O2-  O1  1  0.75740000  0.90400000  0.81260000  1.0
  O2-  O1  1  0.20200000  0.31260000  0.51480000  1.0
  O2-  O1  1  0.70200000  0.31260000  0.51480000  1.0
  O2-  O1  1  0.04800000  0.11080000  0.40860000  1.0
  O2-  O1  1  0.54800000  0.11080000  0.40860000  1.0
  O2-  O1  1  0.39890000  0.38920000  0.98520000  1.0
  O2-  O1  1  0.89890000  0.38920000  0.98520000  1.0
  O2-  O1  1  0.35110000  0.18740000  0.09140000  1.0
  O2-  O1  1  0.85110000  0.18740000  0.09140000  1.0
  O2-  O1  1  0.44460000  0.48520000  0.79780000  1.0
  O2-  O1  1  0.94460000  0.48520000  0.79780000  1.0
  O2-  O1  1  0.34370000  0.59140000  0.70220000  1.0
  O2-  O1  1  0.84370000  0.59140000  0.70220000  1.0
  O2-  O1  1  0.40630000  0.01480000  0.40400000  1.0
  O2-  O1  1  0.90630000  0.01480000  0.40400000  1.0
  O2-  O1  1  0.30540000  0.90860000  0.09600000  1.0
  O2-  O1  1  0.80540000  0.90860000  0.09600000  1.0
  O2-  O1  1  0.45430000  0.79780000  0.31260000  1.0
  O2-  O1  1  0.95430000  0.79780000  0.31260000  1.0
  O2-  O1  1  0.00740000  0.70220000  0.11080000  1.0
  O2-  O1  1  0.50740000  0.70220000  0.11080000  1.0
  O2-  O1  1  0.29570000  0.40400000  0.38920000  1.0
  O2-  O1  1  0.79570000  0.40400000  0.38920000  1.0
  O2-  O1  1  0.24260000  0.09600000  0.18740000  1.0
  O2-  O1  1  0.74260000  0.09600000  0.18740000  1.0
  O2-  O1  1  0.29800000  0.68740000  0.48520000  1.0
  O2-  O1  1  0.79800000  0.68740000  0.48520000  1.0
  O2-  O1  1  0.45200000  0.88920000  0.59140000  1.0
  O2-  O1  1  0.95200000  0.88920000  0.59140000  1.0
  O2-  O1  1  0.10110000  0.61080000  0.01480000  1.0
  O2-  O1  1  0.60110000  0.61080000  0.01480000  1.0
  O2-  O1  1  0.14890000  0.81260000  0.90860000  1.0
  O2-  O1  1  0.64890000  0.81260000  0.90860000  1.0
  O2-  O1  1  0.05540000  0.51480000  0.20220000  1.0
  O2-  O1  1  0.55540000  0.51480000  0.20220000  1.0
  O2-  O1  1  0.15630000  0.40860000  0.29780000  1.0
  O2-  O1  1  0.65630000  0.40860000  0.29780000  1.0
  O2-  O1  1  0.09370000  0.98520000  0.59600000  1.0
  O2-  O1  1  0.59370000  0.98520000  0.59600000  1.0
  O2-  O1  1  0.19460000  0.09140000  0.90400000  1.0
  O2-  O1  1  0.69460000  0.09140000  0.90400000  1.0
