# generated using pymatgen
data_Li7Al2Ge8(PO4)15
_symmetry_space_group_name_H-M   'P 1'
_cell_length_a   8.25565000
_cell_length_b   8.36754689
_cell_length_c   41.27825000
_cell_angle_alpha   60.44138890
_cell_angle_beta   120.00000000
_cell_angle_gamma   119.55861110
_symmetry_Int_Tables_number   1
_chemical_formula_structural   Li7Al2Ge8(PO4)15
_chemical_formula_sum   'Li14 Al4 Ge16 P30 O120'
_cell_volume   2029.64998957
_cell_formula_units_Z   2
loop_
 _symmetry_equiv_pos_site_id
 _symmetry_equiv_pos_as_xyz
  1  'x, y, z'
loop_
 _atom_type_symbol
 _atom_type_oxidation_number
  Li+  1.0
  Al3+  3.0
  Ge4+  4.0
  P5+  5.0
  O2-  -2.0
loop_
 _atom_site_type_symbol
 _atom_site_label
 _atom_site_symmetry_multiplicity
 _atom_site_fract_x
 _atom_site_fract_y
 _atom_site_fract_z
 _atom_site_occupancy
  Li+  Li0  1  0.67580323  0.31673289  0.46083875  1.0
  Li+  Li1  1  0.67314812  0.32067905  0.25958389  1.0
  Li+  Li2  1  0.66824960  0.32212963  0.06553676  1.0
  Li+  Li3  1  0.43251606  0.32328658  0.30625798  1.0
  Li+  Li4  1  0.93547250  0.82327010  0.71478330  1.0
  Li+  Li5  1  0.17230000  0.82090000  0.20654000  1.0
  Li+  Li6  1  0.78270000  0.67910000  0.08446000  1.0
  Li+  Li7  1  0.50026357  0.49943882  0.65036146  1.0
  Li+  Li8  1  0.50422261  0.50137532  0.44746108  1.0
  Li+  Li9  1  0.50000000  0.50000000  0.85000000  1.0
  Li+  Li10  1  0.99914833  0.00208466  0.75425219  1.0
  Li+  Li11  1  0.00018286  0.99901154  0.54950985  1.0
  Li+  Li12  1  0.00000000  0.00000000  0.15000000  1.0
  Li+  Li13  1  0.00000000  0.00000000  0.95000000  1.0
  Al3+  Al14  1  0.36136873  0.07488606  0.67627591  1.0
  Al3+  Al15  1  0.64164000  0.92492000  0.02167200  1.0
  Al3+  Al16  1  0.14164000  0.42492000  0.32167200  1.0
  Al3+  Al17  1  0.14164000  0.42492000  0.12167200  1.0
  Ge4+  Ge18  1  0.35836000  0.07508000  0.47832800  1.0
  Ge4+  Ge19  1  0.35836000  0.07508000  0.27832800  1.0
  Ge4+  Ge20  1  0.35836000  0.07508000  0.07832800  1.0
  Ge4+  Ge21  1  0.35639350  0.07159767  0.87875702  1.0
  Ge4+  Ge22  1  0.85811627  0.57621471  0.58095329  1.0
  Ge4+  Ge23  1  0.85836000  0.57508000  0.37832800  1.0
  Ge4+  Ge24  1  0.85836000  0.57508000  0.17832800  1.0
  Ge4+  Ge25  1  0.85836000  0.57508000  0.97832800  1.0
  Ge4+  Ge26  1  0.85836000  0.57508000  0.77832800  1.0
  Ge4+  Ge27  1  0.64164000  0.92492000  0.62167200  1.0
  Ge4+  Ge28  1  0.64164000  0.92492000  0.42167200  1.0
  Ge4+  Ge29  1  0.64164000  0.92492000  0.22167200  1.0
  Ge4+  Ge30  1  0.64164000  0.92492000  0.82167200  1.0
  Ge4+  Ge31  1  0.14193772  0.42655680  0.72165154  1.0
  Ge4+  Ge32  1  0.14368986  0.42278355  0.52045284  1.0
  Ge4+  Ge33  1  0.14164000  0.42492000  0.92167200  1.0
  P5+  P34  1  0.25000000  0.75000000  0.55748000  1.0
  P5+  P35  1  0.25000000  0.75000000  0.35748000  1.0
  P5+  P36  1  0.25000000  0.75000000  0.15748000  1.0
  P5+  P37  1  0.25000000  0.75000000  0.95748000  1.0
  P5+  P38  1  0.25000000  0.75000000  0.75748000  1.0
  P5+  P39  1  0.53740000  0.75000000  0.70000000  1.0
  P5+  P40  1  0.53740000  0.75000000  0.50000000  1.0
  P5+  P41  1  0.53740000  0.75000000  0.30000000  1.0
  P5+  P42  1  0.53740000  0.75000000  0.10000000  1.0
  P5+  P43  1  0.53740000  0.75000000  0.90000000  1.0
  P5+  P44  1  0.96260000  0.75000000  0.64252000  1.0
  P5+  P45  1  0.96081126  0.74872414  0.43880228  1.0
  P5+  P46  1  0.96260000  0.75000000  0.24252000  1.0
  P5+  P47  1  0.96423749  0.75302278  0.03699710  1.0
  P5+  P48  1  0.96260000  0.75000000  0.84252000  1.0
  P5+  P49  1  0.46567250  0.25121738  0.60039419  1.0
  P5+  P50  1  0.46260000  0.25000000  0.40000000  1.0
  P5+  P51  1  0.46260000  0.25000000  0.20000000  1.0
  P5+  P52  1  0.46834111  0.25271993  0.99760039  1.0
  P5+  P53  1  0.46104773  0.25354602  0.79705595  1.0
  P5+  P54  1  0.03740000  0.25000000  0.65748000  1.0
  P5+  P55  1  0.03515894  0.24654565  0.45623280  1.0
  P5+  P56  1  0.03676552  0.24826262  0.25657436  1.0
  P5+  P57  1  0.03740000  0.25000000  0.05748000  1.0
  P5+  P58  1  0.03740000  0.25000000  0.85748000  1.0
  P5+  P59  1  0.75000000  0.25000000  0.74252000  1.0
  P5+  P60  1  0.75000000  0.25000000  0.54252000  1.0
  P5+  P61  1  0.75000000  0.25000000  0.34252000  1.0
  P5+  P62  1  0.75000000  0.25000000  0.14252000  1.0
  P5+  P63  1  0.75000000  0.25000000  0.94252000  1.0
  O2-  O64  1  0.29186183  0.93361065  0.72657864  1.0
  O2-  O65  1  0.29048000  0.93324000  0.52320400  1.0
  O2-  O66  1  0.29048000  0.93324000  0.32320400  1.0
  O2-  O67  1  0.29048000  0.93324000  0.12320400  1.0
  O2-  O68  1  0.29048000  0.93324000  0.92320400  1.0
  O2-  O69  1  0.50878000  0.93324000  0.69190400  1.0
  O2-  O70  1  0.50878000  0.93324000  0.49190400  1.0
  O2-  O71  1  0.50878000  0.93324000  0.29190400  1.0
  O2-  O72  1  0.50878000  0.93324000  0.09190400  1.0
  O2-  O73  1  0.51087237  0.93234576  0.88946508  1.0
  O2-  O74  1  0.13398000  0.93324000  0.64824400  1.0
  O2-  O75  1  0.12990176  0.93238381  0.44825290  1.0
  O2-  O76  1  0.13507979  0.93518036  0.25231524  1.0
  O2-  O77  1  0.13398000  0.93324000  0.04824400  1.0
  O2-  O78  1  0.13398000  0.93324000  0.84824400  1.0
  O2-  O79  1  0.63398000  0.43324000  0.59190400  1.0
  O2-  O80  1  0.63398000  0.43324000  0.39190400  1.0
  O2-  O81  1  0.63398000  0.43324000  0.19190400  1.0
  O2-  O82  1  0.63398000  0.43324000  0.99190400  1.0
  O2-  O83  1  0.63398000  0.43324000  0.79190400  1.0
  O2-  O84  1  0.00878000  0.43324000  0.62320400  1.0
  O2-  O85  1  0.00878000  0.43324000  0.42320400  1.0
  O2-  O86  1  0.00878000  0.43324000  0.22320400  1.0
  O2-  O87  1  0.00878000  0.43324000  0.02320400  1.0
  O2-  O88  1  0.00878000  0.43324000  0.82320400  1.0
  O2-  O89  1  0.79203324  0.43553675  0.74790604  1.0
  O2-  O90  1  0.79048000  0.43324000  0.54824400  1.0
  O2-  O91  1  0.78408778  0.43157070  0.34559917  1.0
  O2-  O92  1  0.79018716  0.43501662  0.14402340  1.0
  O2-  O93  1  0.79048000  0.43324000  0.94824400  1.0
  O2-  O94  1  0.70952000  0.06676000  0.57679600  1.0
  O2-  O95  1  0.70952000  0.06676000  0.37679600  1.0
  O2-  O96  1  0.70952000  0.06676000  0.17679600  1.0
  O2-  O97  1  0.70952000  0.06676000  0.97679600  1.0
  O2-  O98  1  0.70952000  0.06676000  0.77679600  1.0
  O2-  O99  1  0.49122000  0.06676000  0.60809600  1.0
  O2-  O100  1  0.49430249  0.06602248  0.40571690  1.0
  O2-  O101  1  0.49122000  0.06676000  0.20809600  1.0
  O2-  O102  1  0.49122000  0.06676000  0.00809600  1.0
  O2-  O103  1  0.49122000  0.06676000  0.80809600  1.0
  O2-  O104  1  0.86602000  0.06676000  0.65175600  1.0
  O2-  O105  1  0.86602000  0.06676000  0.45175600  1.0
  O2-  O106  1  0.86167392  0.06928428  0.25031427  1.0
  O2-  O107  1  0.86602000  0.06676000  0.05175600  1.0
  O2-  O108  1  0.86602000  0.06676000  0.85175600  1.0
  O2-  O109  1  0.36539220  0.56740077  0.70999428  1.0
  O2-  O110  1  0.36446901  0.56290530  0.50377862  1.0
  O2-  O111  1  0.36602000  0.56676000  0.30809600  1.0
  O2-  O112  1  0.36602000  0.56676000  0.10809600  1.0
  O2-  O113  1  0.36602000  0.56676000  0.90809600  1.0
  O2-  O114  1  0.99454570  0.56176658  0.67967024  1.0
  O2-  O115  1  0.98581048  0.56443954  0.47641280  1.0
  O2-  O116  1  0.99122000  0.56676000  0.27679600  1.0
  O2-  O117  1  0.99122000  0.56676000  0.07679600  1.0
  O2-  O118  1  0.99122000  0.56676000  0.87679600  1.0
  O2-  O119  1  0.20952000  0.56676000  0.55175600  1.0
  O2-  O120  1  0.20952000  0.56676000  0.35175600  1.0
  O2-  O121  1  0.20952000  0.56676000  0.15175600  1.0
  O2-  O122  1  0.21003018  0.56426711  0.95120492  1.0
  O2-  O123  1  0.20952000  0.56676000  0.75175600  1.0
  O2-  O124  1  0.57739000  0.24767000  0.70408200  1.0
  O2-  O125  1  0.57739000  0.24767000  0.50408200  1.0
  O2-  O126  1  0.57739000  0.24767000  0.30408200  1.0
  O2-  O127  1  0.57739000  0.24767000  0.10408200  1.0
  O2-  O128  1  0.57739000  0.24767000  0.90408200  1.0
  O2-  O129  1  0.44069000  0.24767000  0.63452200  1.0
  O2-  O130  1  0.44069000  0.24767000  0.43452200  1.0
  O2-  O131  1  0.43869418  0.24661916  0.23377165  1.0
  O2-  O132  1  0.44069000  0.24767000  0.03452200  1.0
  O2-  O133  1  0.44069000  0.24767000  0.83452200  1.0
  O2-  O134  1  0.22959000  0.24767000  0.66186200  1.0
  O2-  O135  1  0.22959000  0.24767000  0.46186200  1.0
  O2-  O136  1  0.22959000  0.24767000  0.26186200  1.0
  O2-  O137  1  0.22959000  0.24767000  0.06186200  1.0
  O2-  O138  1  0.23184070  0.25327285  0.86449090  1.0
  O2-  O139  1  0.72959000  0.74767000  0.73452200  1.0
  O2-  O140  1  0.72959000  0.74767000  0.53452200  1.0
  O2-  O141  1  0.73162174  0.74957217  0.33307694  1.0
  O2-  O142  1  0.72959000  0.74767000  0.13452200  1.0
  O2-  O143  1  0.72959000  0.74767000  0.93452200  1.0
  O2-  O144  1  0.94069000  0.74767000  0.60408200  1.0
  O2-  O145  1  0.93736206  0.74906999  0.40426857  1.0
  O2-  O146  1  0.94069000  0.74767000  0.20408200  1.0
  O2-  O147  1  0.93636911  0.74693734  0.00550470  1.0
  O2-  O148  1  0.94069000  0.74767000  0.80408200  1.0
  O2-  O149  1  0.07979356  0.74753541  0.55951126  1.0
  O2-  O150  1  0.07739000  0.74767000  0.36186200  1.0
  O2-  O151  1  0.07739000  0.74767000  0.16186200  1.0
  O2-  O152  1  0.07862671  0.74483081  0.96047592  1.0
  O2-  O153  1  0.07739000  0.74767000  0.76186200  1.0
  O2-  O154  1  0.42261000  0.75233000  0.59591800  1.0
  O2-  O155  1  0.42261000  0.75233000  0.39591800  1.0
  O2-  O156  1  0.42261000  0.75233000  0.19591800  1.0
  O2-  O157  1  0.42261000  0.75233000  0.99591800  1.0
  O2-  O158  1  0.42261000  0.75233000  0.79591800  1.0
  O2-  O159  1  0.55931000  0.75233000  0.66547800  1.0
  O2-  O160  1  0.55931000  0.75233000  0.46547800  1.0
  O2-  O161  1  0.55931000  0.75233000  0.26547800  1.0
  O2-  O162  1  0.55931000  0.75233000  0.06547800  1.0
  O2-  O163  1  0.55931000  0.75233000  0.86547800  1.0
  O2-  O164  1  0.77132596  0.75458731  0.63932444  1.0
  O2-  O165  1  0.77041000  0.75233000  0.43813800  1.0
  O2-  O166  1  0.77041000  0.75233000  0.23813800  1.0
  O2-  O167  1  0.77041000  0.75233000  0.03813800  1.0
  O2-  O168  1  0.77041000  0.75233000  0.83813800  1.0
  O2-  O169  1  0.27041000  0.25233000  0.56547800  1.0
  O2-  O170  1  0.27041000  0.25233000  0.36547800  1.0
  O2-  O171  1  0.27041000  0.25233000  0.16547800  1.0
  O2-  O172  1  0.27041000  0.25233000  0.96547800  1.0
  O2-  O173  1  0.27041000  0.25233000  0.76547800  1.0
  O2-  O174  1  0.05931000  0.25233000  0.69591800  1.0
  O2-  O175  1  0.05931000  0.25233000  0.49591800  1.0
  O2-  O176  1  0.05931000  0.25233000  0.29591800  1.0
  O2-  O177  1  0.05931000  0.25233000  0.09591800  1.0
  O2-  O178  1  0.06442794  0.25180084  0.89841079  1.0
  O2-  O179  1  0.92261000  0.25233000  0.73813800  1.0
  O2-  O180  1  0.92261000  0.25233000  0.53813800  1.0
  O2-  O181  1  0.92261000  0.25233000  0.33813800  1.0
  O2-  O182  1  0.92071533  0.25358193  0.13962136  1.0
  O2-  O183  1  0.92048056  0.25364752  0.93920301  1.0
