# generated using pymatgen
data_Li7Al2Ge8(PO4)15
_symmetry_space_group_name_H-M   'P 1'
_cell_length_a   41.04767302
_cell_length_b   8.20953460
_cell_length_c   8.32080645
_cell_angle_alpha   119.55861110
_cell_angle_beta   119.55861110
_cell_angle_gamma   60.00000000
_symmetry_Int_Tables_number   1
_chemical_formula_structural   Li7Al2Ge8(PO4)15
_chemical_formula_sum   'Li14 Al4 Ge16 P30 O120'
_cell_volume   1995.82724187
_cell_formula_units_Z   2
loop_
 _symmetry_equiv_pos_site_id
 _symmetry_equiv_pos_as_xyz
  1  'x, y, z'
loop_
 _atom_type_symbol
 _atom_type_oxidation_number
  Li+  1.0
  Al3+  3.0
  Ge4+  4.0
  P5+  5.0
  O2-  -2.0
loop_
 _atom_site_type_symbol
 _atom_site_label
 _atom_site_symmetry_multiplicity
 _atom_site_fract_x
 _atom_site_fract_y
 _atom_site_fract_z
 _atom_site_occupancy
  Li+  Li0  1  0.71374000  0.99436667  0.67910000  1.0
  Li+  Li1  1  0.51374000  0.99436667  0.67910000  1.0
  Li+  Li2  1  0.31374000  0.99436667  0.67910000  1.0
  Li+  Li3  1  0.55654000  0.23536667  0.67910000  1.0
  Li+  Li4  1  0.96554000  0.73536667  0.17910000  1.0
  Li+  Li5  1  0.45654000  0.49436667  0.17910000  1.0
  Li+  Li6  1  0.33446000  0.88396667  0.32090000  1.0
  Li+  Li7  1  0.90000000  0.16666667  0.50000000  1.0
  Li+  Li8  1  0.70000000  0.16666667  0.50000000  1.0
  Li+  Li9  1  0.10000000  0.16666667  0.50000000  1.0
  Li+  Li10  1  0.00000000  0.66666667  0.00000000  1.0
  Li+  Li11  1  0.80000000  0.66666667  0.00000000  1.0
  Li+  Li12  1  0.40000000  0.66666667  0.00000000  1.0
  Li+  Li13  1  0.20000000  0.66666667  0.00000000  1.0
  Al3+  Al14  1  0.92832800  0.30830667  0.92492000  1.0
  Al3+  Al15  1  0.27167200  0.02502667  0.07508000  1.0
  Al3+  Al16  1  0.57167200  0.52502667  0.57508000  1.0
  Al3+  Al17  1  0.37167200  0.52502667  0.57508000  1.0
  Ge4+  Ge18  1  0.72832800  0.30830667  0.92492000  1.0
  Ge4+  Ge19  1  0.52832800  0.30830667  0.92492000  1.0
  Ge4+  Ge20  1  0.32832800  0.30830667  0.92492000  1.0
  Ge4+  Ge21  1  0.12832800  0.30830667  0.92492000  1.0
  Ge4+  Ge22  1  0.82832800  0.80830667  0.42492000  1.0
  Ge4+  Ge23  1  0.62832800  0.80830667  0.42492000  1.0
  Ge4+  Ge24  1  0.42832800  0.80830667  0.42492000  1.0
  Ge4+  Ge25  1  0.22832800  0.80830667  0.42492000  1.0
  Ge4+  Ge26  1  0.02832800  0.80830667  0.42492000  1.0
  Ge4+  Ge27  1  0.87167200  0.02502667  0.07508000  1.0
  Ge4+  Ge28  1  0.67167200  0.02502667  0.07508000  1.0
  Ge4+  Ge29  1  0.47167200  0.02502667  0.07508000  1.0
  Ge4+  Ge30  1  0.07167200  0.02502667  0.07508000  1.0
  Ge4+  Ge31  1  0.97167200  0.52502667  0.57508000  1.0
  Ge4+  Ge32  1  0.77167200  0.52502667  0.57508000  1.0
  Ge4+  Ge33  1  0.17167200  0.52502667  0.57508000  1.0
  P5+  P34  1  0.80748000  0.41666667  0.25000000  1.0
  P5+  P35  1  0.60748000  0.41666667  0.25000000  1.0
  P5+  P36  1  0.40748000  0.41666667  0.25000000  1.0
  P5+  P37  1  0.20748000  0.41666667  0.25000000  1.0
  P5+  P38  1  0.00748000  0.41666667  0.25000000  1.0
  P5+  P39  1  0.95000000  0.12926667  0.25000000  1.0
  P5+  P40  1  0.75000000  0.12926667  0.25000000  1.0
  P5+  P41  1  0.55000000  0.12926667  0.25000000  1.0
  P5+  P42  1  0.35000000  0.12926667  0.25000000  1.0
  P5+  P43  1  0.15000000  0.12926667  0.25000000  1.0
  P5+  P44  1  0.89252000  0.70406667  0.25000000  1.0
  P5+  P45  1  0.69252000  0.70406667  0.25000000  1.0
  P5+  P46  1  0.49252000  0.70406667  0.25000000  1.0
  P5+  P47  1  0.29252000  0.70406667  0.25000000  1.0
  P5+  P48  1  0.09252000  0.70406667  0.25000000  1.0
  P5+  P49  1  0.85000000  0.20406667  0.75000000  1.0
  P5+  P50  1  0.65000000  0.20406667  0.75000000  1.0
  P5+  P51  1  0.45000000  0.20406667  0.75000000  1.0
  P5+  P52  1  0.25000000  0.20406667  0.75000000  1.0
  P5+  P53  1  0.05000000  0.20406667  0.75000000  1.0
  P5+  P54  1  0.90748000  0.62926667  0.75000000  1.0
  P5+  P55  1  0.70748000  0.62926667  0.75000000  1.0
  P5+  P56  1  0.50748000  0.62926667  0.75000000  1.0
  P5+  P57  1  0.30748000  0.62926667  0.75000000  1.0
  P5+  P58  1  0.10748000  0.62926667  0.75000000  1.0
  P5+  P59  1  0.99252000  0.91666667  0.75000000  1.0
  P5+  P60  1  0.79252000  0.91666667  0.75000000  1.0
  P5+  P61  1  0.59252000  0.91666667  0.75000000  1.0
  P5+  P62  1  0.39252000  0.91666667  0.75000000  1.0
  P5+  P63  1  0.19252000  0.91666667  0.75000000  1.0
  O2-  O64  1  0.97320400  0.37618667  0.06676000  1.0
  O2-  O65  1  0.77320400  0.37618667  0.06676000  1.0
  O2-  O66  1  0.57320400  0.37618667  0.06676000  1.0
  O2-  O67  1  0.37320400  0.37618667  0.06676000  1.0
  O2-  O68  1  0.17320400  0.37618667  0.06676000  1.0
  O2-  O69  1  0.94190400  0.15788667  0.06676000  1.0
  O2-  O70  1  0.74190400  0.15788667  0.06676000  1.0
  O2-  O71  1  0.54190400  0.15788667  0.06676000  1.0
  O2-  O72  1  0.34190400  0.15788667  0.06676000  1.0
  O2-  O73  1  0.14190400  0.15788667  0.06676000  1.0
  O2-  O74  1  0.89824400  0.53268667  0.06676000  1.0
  O2-  O75  1  0.69824400  0.53268667  0.06676000  1.0
  O2-  O76  1  0.49824400  0.53268667  0.06676000  1.0
  O2-  O77  1  0.29824400  0.53268667  0.06676000  1.0
  O2-  O78  1  0.09824400  0.53268667  0.06676000  1.0
  O2-  O79  1  0.84190400  0.03268667  0.56676000  1.0
  O2-  O80  1  0.64190400  0.03268667  0.56676000  1.0
  O2-  O81  1  0.44190400  0.03268667  0.56676000  1.0
  O2-  O82  1  0.24190400  0.03268667  0.56676000  1.0
  O2-  O83  1  0.04190400  0.03268667  0.56676000  1.0
  O2-  O84  1  0.87320400  0.65788667  0.56676000  1.0
  O2-  O85  1  0.67320400  0.65788667  0.56676000  1.0
  O2-  O86  1  0.47320400  0.65788667  0.56676000  1.0
  O2-  O87  1  0.27320400  0.65788667  0.56676000  1.0
  O2-  O88  1  0.07320400  0.65788667  0.56676000  1.0
  O2-  O89  1  0.99824400  0.87618667  0.56676000  1.0
  O2-  O90  1  0.79824400  0.87618667  0.56676000  1.0
  O2-  O91  1  0.59824400  0.87618667  0.56676000  1.0
  O2-  O92  1  0.39824400  0.87618667  0.56676000  1.0
  O2-  O93  1  0.19824400  0.87618667  0.56676000  1.0
  O2-  O94  1  0.82679600  0.95714667  0.93324000  1.0
  O2-  O95  1  0.62679600  0.95714667  0.93324000  1.0
  O2-  O96  1  0.42679600  0.95714667  0.93324000  1.0
  O2-  O97  1  0.22679600  0.95714667  0.93324000  1.0
  O2-  O98  1  0.02679600  0.95714667  0.93324000  1.0
  O2-  O99  1  0.85809600  0.17544667  0.93324000  1.0
  O2-  O100  1  0.65809600  0.17544667  0.93324000  1.0
  O2-  O101  1  0.45809600  0.17544667  0.93324000  1.0
  O2-  O102  1  0.25809600  0.17544667  0.93324000  1.0
  O2-  O103  1  0.05809600  0.17544667  0.93324000  1.0
  O2-  O104  1  0.90175600  0.80064667  0.93324000  1.0
  O2-  O105  1  0.70175600  0.80064667  0.93324000  1.0
  O2-  O106  1  0.50175600  0.80064667  0.93324000  1.0
  O2-  O107  1  0.30175600  0.80064667  0.93324000  1.0
  O2-  O108  1  0.10175600  0.80064667  0.93324000  1.0
  O2-  O109  1  0.95809600  0.30064667  0.43324000  1.0
  O2-  O110  1  0.75809600  0.30064667  0.43324000  1.0
  O2-  O111  1  0.55809600  0.30064667  0.43324000  1.0
  O2-  O112  1  0.35809600  0.30064667  0.43324000  1.0
  O2-  O113  1  0.15809600  0.30064667  0.43324000  1.0
  O2-  O114  1  0.92679600  0.67544667  0.43324000  1.0
  O2-  O115  1  0.72679600  0.67544667  0.43324000  1.0
  O2-  O116  1  0.52679600  0.67544667  0.43324000  1.0
  O2-  O117  1  0.32679600  0.67544667  0.43324000  1.0
  O2-  O118  1  0.12679600  0.67544667  0.43324000  1.0
  O2-  O119  1  0.80175600  0.45714667  0.43324000  1.0
  O2-  O120  1  0.60175600  0.45714667  0.43324000  1.0
  O2-  O121  1  0.40175600  0.45714667  0.43324000  1.0
  O2-  O122  1  0.20175600  0.45714667  0.43324000  1.0
  O2-  O123  1  0.00175600  0.45714667  0.43324000  1.0
  O2-  O124  1  0.95408200  0.08927667  0.75233000  1.0
  O2-  O125  1  0.75408200  0.08927667  0.75233000  1.0
  O2-  O126  1  0.55408200  0.08927667  0.75233000  1.0
  O2-  O127  1  0.35408200  0.08927667  0.75233000  1.0
  O2-  O128  1  0.15408200  0.08927667  0.75233000  1.0
  O2-  O129  1  0.88452200  0.22597667  0.75233000  1.0
  O2-  O130  1  0.68452200  0.22597667  0.75233000  1.0
  O2-  O131  1  0.48452200  0.22597667  0.75233000  1.0
  O2-  O132  1  0.28452200  0.22597667  0.75233000  1.0
  O2-  O133  1  0.08452200  0.22597667  0.75233000  1.0
  O2-  O134  1  0.91186200  0.43707667  0.75233000  1.0
  O2-  O135  1  0.71186200  0.43707667  0.75233000  1.0
  O2-  O136  1  0.51186200  0.43707667  0.75233000  1.0
  O2-  O137  1  0.31186200  0.43707667  0.75233000  1.0
  O2-  O138  1  0.11186200  0.43707667  0.75233000  1.0
  O2-  O139  1  0.98452200  0.93707667  0.25233000  1.0
  O2-  O140  1  0.78452200  0.93707667  0.25233000  1.0
  O2-  O141  1  0.58452200  0.93707667  0.25233000  1.0
  O2-  O142  1  0.38452200  0.93707667  0.25233000  1.0
  O2-  O143  1  0.18452200  0.93707667  0.25233000  1.0
  O2-  O144  1  0.85408200  0.72597667  0.25233000  1.0
  O2-  O145  1  0.65408200  0.72597667  0.25233000  1.0
  O2-  O146  1  0.45408200  0.72597667  0.25233000  1.0
  O2-  O147  1  0.25408200  0.72597667  0.25233000  1.0
  O2-  O148  1  0.05408200  0.72597667  0.25233000  1.0
  O2-  O149  1  0.81186200  0.58927667  0.25233000  1.0
  O2-  O150  1  0.61186200  0.58927667  0.25233000  1.0
  O2-  O151  1  0.41186200  0.58927667  0.25233000  1.0
  O2-  O152  1  0.21186200  0.58927667  0.25233000  1.0
  O2-  O153  1  0.01186200  0.58927667  0.25233000  1.0
  O2-  O154  1  0.84591800  0.24405667  0.24767000  1.0
  O2-  O155  1  0.64591800  0.24405667  0.24767000  1.0
  O2-  O156  1  0.44591800  0.24405667  0.24767000  1.0
  O2-  O157  1  0.24591800  0.24405667  0.24767000  1.0
  O2-  O158  1  0.04591800  0.24405667  0.24767000  1.0
  O2-  O159  1  0.91547800  0.10735667  0.24767000  1.0
  O2-  O160  1  0.71547800  0.10735667  0.24767000  1.0
  O2-  O161  1  0.51547800  0.10735667  0.24767000  1.0
  O2-  O162  1  0.31547800  0.10735667  0.24767000  1.0
  O2-  O163  1  0.11547800  0.10735667  0.24767000  1.0
  O2-  O164  1  0.88813800  0.89625667  0.24767000  1.0
  O2-  O165  1  0.68813800  0.89625667  0.24767000  1.0
  O2-  O166  1  0.48813800  0.89625667  0.24767000  1.0
  O2-  O167  1  0.28813800  0.89625667  0.24767000  1.0
  O2-  O168  1  0.08813800  0.89625667  0.24767000  1.0
  O2-  O169  1  0.81547800  0.39625667  0.74767000  1.0
  O2-  O170  1  0.61547800  0.39625667  0.74767000  1.0
  O2-  O171  1  0.41547800  0.39625667  0.74767000  1.0
  O2-  O172  1  0.21547800  0.39625667  0.74767000  1.0
  O2-  O173  1  0.01547800  0.39625667  0.74767000  1.0
  O2-  O174  1  0.94591800  0.60735667  0.74767000  1.0
  O2-  O175  1  0.74591800  0.60735667  0.74767000  1.0
  O2-  O176  1  0.54591800  0.60735667  0.74767000  1.0
  O2-  O177  1  0.34591800  0.60735667  0.74767000  1.0
  O2-  O178  1  0.14591800  0.60735667  0.74767000  1.0
  O2-  O179  1  0.98813800  0.74405667  0.74767000  1.0
  O2-  O180  1  0.78813800  0.74405667  0.74767000  1.0
  O2-  O181  1  0.58813800  0.74405667  0.74767000  1.0
  O2-  O182  1  0.38813800  0.74405667  0.74767000  1.0
  O2-  O183  1  0.18813800  0.74405667  0.74767000  1.0
