# generated using pymatgen
data_Li7Al2Ge8(PO4)15
_symmetry_space_group_name_H-M   'P 1'
_cell_length_a   8.25565000
_cell_length_b   41.27825000
_cell_length_c   8.36754689
_cell_angle_alpha   60.44138890
_cell_angle_beta   60.44138890
_cell_angle_gamma   60.00000000
_symmetry_Int_Tables_number   1
_chemical_formula_structural   Li7Al2Ge8(PO4)15
_chemical_formula_sum   'Li14 Al4 Ge16 P30 O120'
_cell_volume   2029.64998957
_cell_formula_units_Z   2
loop_
 _symmetry_equiv_pos_site_id
 _symmetry_equiv_pos_as_xyz
  1  'x, y, z'
loop_
 _atom_type_symbol
 _atom_type_oxidation_number
  Li+  1.0
  Al3+  3.0
  Ge4+  4.0
  P5+  5.0
  O2-  -2.0
loop_
 _atom_site_type_symbol
 _atom_site_label
 _atom_site_symmetry_multiplicity
 _atom_site_fract_x
 _atom_site_fract_y
 _atom_site_fract_z
 _atom_site_occupancy
  Li+  Li0  1  0.67230000  0.28626000  0.67910000  1.0
  Li+  Li1  1  0.67230000  0.48626000  0.67910000  1.0
  Li+  Li2  1  0.67230000  0.68626000  0.67910000  1.0
  Li+  Li3  1  0.43130000  0.44346000  0.67910000  1.0
  Li+  Li4  1  0.93130000  0.03446000  0.17910000  1.0
  Li+  Li5  1  0.17230000  0.54346000  0.17910000  1.0
  Li+  Li6  1  0.78270000  0.66554000  0.32090000  1.0
  Li+  Li7  1  0.50000000  0.10000000  0.50000000  1.0
  Li+  Li8  1  0.50000000  0.30000000  0.50000000  1.0
  Li+  Li9  1  0.50000000  0.90000000  0.50000000  1.0
  Li+  Li10  1  0.00000000  0.00000000  0.00000000  1.0
  Li+  Li11  1  0.00000000  0.20000000  1.00000000  1.0
  Li+  Li12  1  0.00000000  0.60000000  1.00000000  1.0
  Li+  Li13  1  0.00000000  0.80000000  1.00000000  1.0
  Al3+  Al14  1  0.35836000  0.07167200  0.92492000  1.0
  Al3+  Al15  1  0.64164000  0.72832800  0.07508000  1.0
  Al3+  Al16  1  0.14164000  0.42832800  0.57508000  1.0
  Al3+  Al17  1  0.14164000  0.62832800  0.57508000  1.0
  Ge4+  Ge18  1  0.35836000  0.27167200  0.92492000  1.0
  Ge4+  Ge19  1  0.35836000  0.47167200  0.92492000  1.0
  Ge4+  Ge20  1  0.35836000  0.67167200  0.92492000  1.0
  Ge4+  Ge21  1  0.35836000  0.87167200  0.92492000  1.0
  Ge4+  Ge22  1  0.85836000  0.17167200  0.42492000  1.0
  Ge4+  Ge23  1  0.85836000  0.37167200  0.42492000  1.0
  Ge4+  Ge24  1  0.85836000  0.57167200  0.42492000  1.0
  Ge4+  Ge25  1  0.85836000  0.77167200  0.42492000  1.0
  Ge4+  Ge26  1  0.85836000  0.97167200  0.42492000  1.0
  Ge4+  Ge27  1  0.64164000  0.12832800  0.07508000  1.0
  Ge4+  Ge28  1  0.64164000  0.32832800  0.07508000  1.0
  Ge4+  Ge29  1  0.64164000  0.52832800  0.07508000  1.0
  Ge4+  Ge30  1  0.64164000  0.92832800  0.07508000  1.0
  Ge4+  Ge31  1  0.14164000  0.02832800  0.57508000  1.0
  Ge4+  Ge32  1  0.14164000  0.22832800  0.57508000  1.0
  Ge4+  Ge33  1  0.14164000  0.82832800  0.57508000  1.0
  P5+  P1  1  0.25000000  0.19252000  0.25000000  1.0
  P5+  P1  1  0.25000000  0.39252000  0.25000000  1.0
  P5+  P1  1  0.25000000  0.59252000  0.25000000  1.0
  P5+  P1  1  0.25000000  0.79252000  0.25000000  1.0
  P5+  P1  1  0.25000000  0.99252000  0.25000000  1.0
  P5+  P1  1  0.53740000  0.05000000  0.25000000  1.0
  P5+  P1  1  0.53740000  0.25000000  0.25000000  1.0
  P5+  P1  1  0.53740000  0.45000000  0.25000000  1.0
  P5+  P1  1  0.53740000  0.65000000  0.25000000  1.0
  P5+  P1  1  0.53740000  0.85000000  0.25000000  1.0
  P5+  P1  1  0.96260000  0.10748000  0.25000000  1.0
  P5+  P1  1  0.96260000  0.30748000  0.25000000  1.0
  P5+  P1  1  0.96260000  0.50748000  0.25000000  1.0
  P5+  P1  1  0.96260000  0.70748000  0.25000000  1.0
  P5+  P1  1  0.96260000  0.90748000  0.25000000  1.0
  P5+  P1  1  0.46260000  0.15000000  0.75000000  1.0
  P5+  P1  1  0.46260000  0.35000000  0.75000000  1.0
  P5+  P1  1  0.46260000  0.55000000  0.75000000  1.0
  P5+  P1  1  0.46260000  0.75000000  0.75000000  1.0
  P5+  P1  1  0.46260000  0.95000000  0.75000000  1.0
  P5+  P1  1  0.03740000  0.09252000  0.75000000  1.0
  P5+  P1  1  0.03740000  0.29252000  0.75000000  1.0
  P5+  P1  1  0.03740000  0.49252000  0.75000000  1.0
  P5+  P1  1  0.03740000  0.69252000  0.75000000  1.0
  P5+  P1  1  0.03740000  0.89252000  0.75000000  1.0
  P5+  P1  1  0.75000000  0.00748000  0.75000000  1.0
  P5+  P1  1  0.75000000  0.20748000  0.75000000  1.0
  P5+  P1  1  0.75000000  0.40748000  0.75000000  1.0
  P5+  P1  1  0.75000000  0.60748000  0.75000000  1.0
  P5+  P1  1  0.75000000  0.80748000  0.75000000  1.0
  O2-  O1  1  0.29048000  0.02679600  0.06676000  1.0
  O2-  O1  1  0.29048000  0.22679600  0.06676000  1.0
  O2-  O1  1  0.29048000  0.42679600  0.06676000  1.0
  O2-  O1  1  0.29048000  0.62679600  0.06676000  1.0
  O2-  O1  1  0.29048000  0.82679600  0.06676000  1.0
  O2-  O1  1  0.50878000  0.05809600  0.06676000  1.0
  O2-  O1  1  0.50878000  0.25809600  0.06676000  1.0
  O2-  O1  1  0.50878000  0.45809600  0.06676000  1.0
  O2-  O1  1  0.50878000  0.65809600  0.06676000  1.0
  O2-  O1  1  0.50878000  0.85809600  0.06676000  1.0
  O2-  O1  1  0.13398000  0.10175600  0.06676000  1.0
  O2-  O1  1  0.13398000  0.30175600  0.06676000  1.0
  O2-  O1  1  0.13398000  0.50175600  0.06676000  1.0
  O2-  O1  1  0.13398000  0.70175600  0.06676000  1.0
  O2-  O1  1  0.13398000  0.90175600  0.06676000  1.0
  O2-  O1  1  0.63398000  0.15809600  0.56676000  1.0
  O2-  O1  1  0.63398000  0.35809600  0.56676000  1.0
  O2-  O1  1  0.63398000  0.55809600  0.56676000  1.0
  O2-  O1  1  0.63398000  0.75809600  0.56676000  1.0
  O2-  O1  1  0.63398000  0.95809600  0.56676000  1.0
  O2-  O1  1  0.00878000  0.12679600  0.56676000  1.0
  O2-  O1  1  0.00878000  0.32679600  0.56676000  1.0
  O2-  O1  1  0.00878000  0.52679600  0.56676000  1.0
  O2-  O1  1  0.00878000  0.72679600  0.56676000  1.0
  O2-  O1  1  0.00878000  0.92679600  0.56676000  1.0
  O2-  O1  1  0.79048000  0.00175600  0.56676000  1.0
  O2-  O1  1  0.79048000  0.20175600  0.56676000  1.0
  O2-  O1  1  0.79048000  0.40175600  0.56676000  1.0
  O2-  O1  1  0.79048000  0.60175600  0.56676000  1.0
  O2-  O1  1  0.79048000  0.80175600  0.56676000  1.0
  O2-  O1  1  0.70952000  0.17320400  0.93324000  1.0
  O2-  O1  1  0.70952000  0.37320400  0.93324000  1.0
  O2-  O1  1  0.70952000  0.57320400  0.93324000  1.0
  O2-  O1  1  0.70952000  0.77320400  0.93324000  1.0
  O2-  O1  1  0.70952000  0.97320400  0.93324000  1.0
  O2-  O1  1  0.49122000  0.14190400  0.93324000  1.0
  O2-  O1  1  0.49122000  0.34190400  0.93324000  1.0
  O2-  O1  1  0.49122000  0.54190400  0.93324000  1.0
  O2-  O1  1  0.49122000  0.74190400  0.93324000  1.0
  O2-  O1  1  0.49122000  0.94190400  0.93324000  1.0
  O2-  O1  1  0.86602000  0.09824400  0.93324000  1.0
  O2-  O1  1  0.86602000  0.29824400  0.93324000  1.0
  O2-  O1  1  0.86602000  0.49824400  0.93324000  1.0
  O2-  O1  1  0.86602000  0.69824400  0.93324000  1.0
  O2-  O1  1  0.86602000  0.89824400  0.93324000  1.0
  O2-  O1  1  0.36602000  0.04190400  0.43324000  1.0
  O2-  O1  1  0.36602000  0.24190400  0.43324000  1.0
  O2-  O1  1  0.36602000  0.44190400  0.43324000  1.0
  O2-  O1  1  0.36602000  0.64190400  0.43324000  1.0
  O2-  O1  1  0.36602000  0.84190400  0.43324000  1.0
  O2-  O1  1  0.99122000  0.07320400  0.43324000  1.0
  O2-  O1  1  0.99122000  0.27320400  0.43324000  1.0
  O2-  O1  1  0.99122000  0.47320400  0.43324000  1.0
  O2-  O1  1  0.99122000  0.67320400  0.43324000  1.0
  O2-  O1  1  0.99122000  0.87320400  0.43324000  1.0
  O2-  O1  1  0.20952000  0.19824400  0.43324000  1.0
  O2-  O1  1  0.20952000  0.39824400  0.43324000  1.0
  O2-  O1  1  0.20952000  0.59824400  0.43324000  1.0
  O2-  O1  1  0.20952000  0.79824400  0.43324000  1.0
  O2-  O1  1  0.20952000  0.99824400  0.43324000  1.0
  O2-  O2  1  0.57739000  0.04591800  0.75233000  1.0
  O2-  O2  1  0.57739000  0.24591800  0.75233000  1.0
  O2-  O2  1  0.57739000  0.44591800  0.75233000  1.0
  O2-  O2  1  0.57739000  0.64591800  0.75233000  1.0
  O2-  O2  1  0.57739000  0.84591800  0.75233000  1.0
  O2-  O2  1  0.44069000  0.11547800  0.75233000  1.0
  O2-  O2  1  0.44069000  0.31547800  0.75233000  1.0
  O2-  O2  1  0.44069000  0.51547800  0.75233000  1.0
  O2-  O2  1  0.44069000  0.71547800  0.75233000  1.0
  O2-  O2  1  0.44069000  0.91547800  0.75233000  1.0
  O2-  O2  1  0.22959000  0.08813800  0.75233000  1.0
  O2-  O2  1  0.22959000  0.28813800  0.75233000  1.0
  O2-  O2  1  0.22959000  0.48813800  0.75233000  1.0
  O2-  O2  1  0.22959000  0.68813800  0.75233000  1.0
  O2-  O2  1  0.22959000  0.88813800  0.75233000  1.0
  O2-  O2  1  0.72959000  0.01547800  0.25233000  1.0
  O2-  O2  1  0.72959000  0.21547800  0.25233000  1.0
  O2-  O2  1  0.72959000  0.41547800  0.25233000  1.0
  O2-  O2  1  0.72959000  0.61547800  0.25233000  1.0
  O2-  O2  1  0.72959000  0.81547800  0.25233000  1.0
  O2-  O2  1  0.94069000  0.14591800  0.25233000  1.0
  O2-  O2  1  0.94069000  0.34591800  0.25233000  1.0
  O2-  O2  1  0.94069000  0.54591800  0.25233000  1.0
  O2-  O2  1  0.94069000  0.74591800  0.25233000  1.0
  O2-  O2  1  0.94069000  0.94591800  0.25233000  1.0
  O2-  O2  1  0.07739000  0.18813800  0.25233000  1.0
  O2-  O2  1  0.07739000  0.38813800  0.25233000  1.0
  O2-  O2  1  0.07739000  0.58813800  0.25233000  1.0
  O2-  O2  1  0.07739000  0.78813800  0.25233000  1.0
  O2-  O2  1  0.07739000  0.98813800  0.25233000  1.0
  O2-  O2  1  0.42261000  0.15408200  0.24767000  1.0
  O2-  O2  1  0.42261000  0.35408200  0.24767000  1.0
  O2-  O2  1  0.42261000  0.55408200  0.24767000  1.0
  O2-  O2  1  0.42261000  0.75408200  0.24767000  1.0
  O2-  O2  1  0.42261000  0.95408200  0.24767000  1.0
  O2-  O2  1  0.55931000  0.08452200  0.24767000  1.0
  O2-  O2  1  0.55931000  0.28452200  0.24767000  1.0
  O2-  O2  1  0.55931000  0.48452200  0.24767000  1.0
  O2-  O2  1  0.55931000  0.68452200  0.24767000  1.0
  O2-  O2  1  0.55931000  0.88452200  0.24767000  1.0
  O2-  O2  1  0.77041000  0.11186200  0.24767000  1.0
  O2-  O2  1  0.77041000  0.31186200  0.24767000  1.0
  O2-  O2  1  0.77041000  0.51186200  0.24767000  1.0
  O2-  O2  1  0.77041000  0.71186200  0.24767000  1.0
  O2-  O2  1  0.77041000  0.91186200  0.24767000  1.0
  O2-  O2  1  0.27041000  0.18452200  0.74767000  1.0
  O2-  O2  1  0.27041000  0.38452200  0.74767000  1.0
  O2-  O2  1  0.27041000  0.58452200  0.74767000  1.0
  O2-  O2  1  0.27041000  0.78452200  0.74767000  1.0
  O2-  O2  1  0.27041000  0.98452200  0.74767000  1.0
  O2-  O2  1  0.05931000  0.05408200  0.74767000  1.0
  O2-  O2  1  0.05931000  0.25408200  0.74767000  1.0
  O2-  O2  1  0.05931000  0.45408200  0.74767000  1.0
  O2-  O2  1  0.05931000  0.65408200  0.74767000  1.0
  O2-  O2  1  0.05931000  0.85408200  0.74767000  1.0
  O2-  O2  1  0.92261000  0.01186200  0.74767000  1.0
  O2-  O2  1  0.92261000  0.21186200  0.74767000  1.0
  O2-  O2  1  0.92261000  0.41186200  0.74767000  1.0
  O2-  O2  1  0.92261000  0.61186200  0.74767000  1.0
  O2-  O2  1  0.92261000  0.81186200  0.74767000  1.0
