# generated using pymatgen
data_Li6PS5Cl
_symmetry_space_group_name_H-M   'P 1'
_cell_length_a   13.94301435
_cell_length_b   13.94301435
_cell_length_c   13.94301435
_cell_angle_alpha   60.00000000
_cell_angle_beta   120.00000000
_cell_angle_gamma   120.00000000
_symmetry_Int_Tables_number   1
_chemical_formula_structural   Li6PS5Cl
_chemical_formula_sum   'Li48 P8 S40 Cl8'
_cell_volume   1916.70389407
_cell_formula_units_Z   8
loop_
 _symmetry_equiv_pos_site_id
 _symmetry_equiv_pos_as_xyz
  1  'x, y, z'
loop_
 _atom_type_symbol
 _atom_type_oxidation_number
  Li+  1.0
  P5+  5.0
  S2-  -2.0
  Cl-  -1.0
loop_
 _atom_site_type_symbol
 _atom_site_label
 _atom_site_symmetry_multiplicity
 _atom_site_fract_x
 _atom_site_fract_y
 _atom_site_fract_z
 _atom_site_occupancy
  Li+  Li0  1  0.12000000  0.57150000  0.13000000  1.0
  Li+  Li1  1  0.33150000  0.88000000  0.32150000  1.0
  Li+  Li2  1  0.42850000  0.38000000  0.91850000  1.0
  Li+  Li3  1  0.33150000  0.57150000  0.13000000  1.0
  Li+  Li4  1  0.83150000  0.88000000  0.63000000  1.0
  Li+  Li5  1  0.12000000  0.07150000  0.91850000  1.0
  Li+  Li6  1  0.62000000  0.07150000  0.41850000  1.0
  Li+  Li7  1  0.92433621  0.66754165  0.62209047  1.0
  Li+  Li8  1  0.92990068  0.17007744  0.62712071  1.0
  Li+  Li9  1  0.42850000  0.88000000  0.13000000  1.0
  Li+  Li10  1  0.17045000  0.69375000  0.73835000  1.0
  Li+  Li11  1  0.17305472  0.19449304  0.24095947  1.0
  Li+  Li12  1  0.67130702  0.69117071  0.73914986  1.0
  Li+  Li13  1  0.67043515  0.19347943  0.23376190  1.0
  Li+  Li14  1  0.01165000  0.32955000  0.94375000  1.0
  Li+  Li15  1  0.51165000  0.32955000  0.44375000  1.0
  Li+  Li16  1  0.30625000  0.98835000  0.73835000  1.0
  Li+  Li17  1  0.80625000  0.98835000  0.73835000  1.0
  Li+  Li18  1  0.80892381  0.48770105  0.73813798  1.0
  Li+  Li19  1  0.80413752  0.98708046  0.23894250  1.0
  Li+  Li20  1  0.80625000  0.82955000  0.23835000  1.0
  Li+  Li21  1  0.01073643  0.69403956  0.23922233  1.0
  Li+  Li22  1  0.51165000  0.69375000  0.23835000  1.0
  Li+  Li23  1  0.01165000  0.32955000  0.73835000  1.0
  Li+  Li24  1  0.01165000  0.19375000  0.57955000  1.0
  Li+  Li25  1  0.01165000  0.69375000  0.07955000  1.0
  Li+  Li26  1  0.01165000  0.19375000  0.07955000  1.0
  Li+  Li27  1  0.51093503  0.69711391  0.57673040  1.0
  Li+  Li28  1  0.51165000  0.69375000  0.07955000  1.0
  Li+  Li29  1  0.51165000  0.19375000  0.07955000  1.0
  Li+  Li30  1  0.51165000  0.48835000  0.57955000  1.0
  Li+  Li31  1  0.51165000  0.48835000  0.07955000  1.0
  Li+  Li32  1  0.17045000  0.98835000  0.73835000  1.0
  Li+  Li33  1  0.17045000  0.48835000  0.23835000  1.0
  Li+  Li34  1  0.67045000  0.98835000  0.73835000  1.0
  Li+  Li35  1  0.67045000  0.98835000  0.23835000  1.0
  Li+  Li36  1  0.67045000  0.48835000  0.23835000  1.0
  Li+  Li37  1  0.01165000  0.48835000  0.44375000  1.0
  Li+  Li38  1  0.01281200  0.99025097  0.94627620  1.0
  Li+  Li39  1  0.51165000  0.48835000  0.94375000  1.0
  Li+  Li40  1  0.30625000  0.48835000  0.07955000  1.0
  Li+  Li41  1  0.80625000  0.98835000  0.57955000  1.0
  Li+  Li42  1  0.17045000  0.98835000  0.44375000  1.0
  Li+  Li43  1  0.16676573  0.48770464  0.44192957  1.0
  Li+  Li44  1  0.17382661  0.98951946  0.93995622  1.0
  Li+  Li45  1  0.17045000  0.48835000  0.94375000  1.0
  Li+  Li46  1  0.67045000  0.48835000  0.44375000  1.0
  Li+  Li47  1  0.66955831  0.48870901  0.94399307  1.0
  P5+  P48  1  0.25000000  0.75000000  0.50000000  1.0
  P5+  P49  1  0.25000000  0.25000000  0.50000000  1.0
  P5+  P50  1  0.24950173  0.74664051  0.99453781  1.0
  P5+  P51  1  0.25000000  0.25000000  0.00000000  1.0
  P5+  P52  1  0.75428056  0.74799110  0.49871947  1.0
  P5+  P53  1  0.75000000  0.25000000  0.50000000  1.0
  P5+  P54  1  0.75000000  0.75000000  0.00000000  1.0
  P5+  P55  1  0.75000000  0.25000000  0.00000000  1.0
  S2-  S56  1  0.31092651  0.69397912  0.67866868  1.0
  S2-  S57  1  0.30935000  0.19065000  0.67805000  1.0
  S2-  S58  1  0.30935000  0.69065000  0.17805000  1.0
  S2-  S59  1  0.30935000  0.19065000  0.17805000  1.0
  S2-  S60  1  0.80935000  0.69065000  0.67805000  1.0
  S2-  S61  1  0.80935000  0.19065000  0.67805000  1.0
  S2-  S62  1  0.81334490  0.69234806  0.17537587  1.0
  S2-  S63  1  0.80935000  0.19065000  0.17805000  1.0
  S2-  S64  1  0.30935000  0.69065000  0.44065000  1.0
  S2-  S65  1  0.30935000  0.19065000  0.44065000  1.0
  S2-  S66  1  0.30935000  0.69065000  0.94065000  1.0
  S2-  S67  1  0.30935000  0.19065000  0.94065000  1.0
  S2-  S68  1  0.80935000  0.69065000  0.44065000  1.0
  S2-  S69  1  0.80935000  0.19065000  0.44065000  1.0
  S2-  S70  1  0.80850003  0.69191765  0.93856595  1.0
  S2-  S71  1  0.80935000  0.19065000  0.94065000  1.0
  S2-  S72  1  0.30935000  0.92805000  0.44065000  1.0
  S2-  S73  1  0.30935000  0.42805000  0.44065000  1.0
  S2-  S74  1  0.30935000  0.92805000  0.94065000  1.0
  S2-  S75  1  0.30935000  0.42805000  0.94065000  1.0
  S2-  S76  1  0.80935000  0.92805000  0.44065000  1.0
  S2-  S77  1  0.80935000  0.42805000  0.44065000  1.0
  S2-  S78  1  0.80935000  0.92805000  0.94065000  1.0
  S2-  S79  1  0.80935000  0.42805000  0.94065000  1.0
  S2-  S80  1  0.07242601  0.69404174  0.44155358  1.0
  S2-  S81  1  0.07195000  0.19065000  0.44065000  1.0
  S2-  S82  1  0.07217575  0.69135040  0.93723356  1.0
  S2-  S83  1  0.07628696  0.19673868  0.94348415  1.0
  S2-  S84  1  0.57195000  0.69065000  0.44065000  1.0
  S2-  S85  1  0.57195000  0.19065000  0.44065000  1.0
  S2-  S86  1  0.57195000  0.69065000  0.94065000  1.0
  S2-  S87  1  0.56740290  0.18940305  0.94023640  1.0
  S2-  S88  1  0.12500000  0.87500000  0.12500000  1.0
  S2-  S89  1  0.62497570  0.37487810  0.62122890  1.0
  S2-  S90  1  0.62500000  0.87500000  0.12500000  1.0
  S2-  S91  1  0.00362687  0.00193051  0.74891832  1.0
  S2-  S92  1  0.00000000  0.50000000  0.75000000  1.0
  S2-  S93  1  0.50021091  0.50330192  0.75407774  1.0
  S2-  S94  1  0.50000000  0.00000000  0.25000000  1.0
  S2-  S95  1  0.50000000  0.50000000  0.25000000  1.0
  Cl-  Cl96  1  0.12500000  0.87500000  0.62500000  1.0
  Cl-  Cl97  1  0.12500000  0.37500000  0.62500000  1.0
  Cl-  Cl98  1  0.12500000  0.37500000  0.12500000  1.0
  Cl-  Cl99  1  0.62500000  0.87500000  0.62500000  1.0
  Cl-  Cl100  1  0.62806498  0.37809150  0.12616229  1.0
  Cl-  Cl101  1  0.00000000  0.00000000  0.25000000  1.0
  Cl-  Cl102  1  0.00000000  0.50000000  0.25000000  1.0
  Cl-  Cl103  1  0.50000000  0.00000000  0.75000000  1.0
