# generated using pymatgen
data_Li6PS5I
_symmetry_space_group_name_H-M   'P 1'
_cell_length_a   14.34842696
_cell_length_b   14.34842696
_cell_length_c   14.34842696
_cell_angle_alpha   60.00000000
_cell_angle_beta   120.00000000
_cell_angle_gamma   120.00000000
_symmetry_Int_Tables_number   1
_chemical_formula_structural   Li6PS5I
_chemical_formula_sum   'Li48 P8 S40 I8'
_cell_volume   2088.80489279
_cell_formula_units_Z   8
loop_
 _symmetry_equiv_pos_site_id
 _symmetry_equiv_pos_as_xyz
  1  'x, y, z'
loop_
 _atom_type_symbol
 _atom_type_oxidation_number
  Li+  1.0
  P5+  5.0
  S2-  -2.0
  I-  -1.0
loop_
 _atom_site_type_symbol
 _atom_site_label
 _atom_site_symmetry_multiplicity
 _atom_site_fract_x
 _atom_site_fract_y
 _atom_site_fract_z
 _atom_site_occupancy
  Li+  Li0  1  0.74100000  0.25900000  0.74100000  1.0
  Li+  Li1  1  0.00900000  0.25900000  0.50900000  1.0
  Li+  Li2  1  0.00900000  0.25900000  0.00900000  1.0
  Li+  Li3  1  0.50900000  0.75900000  0.50900000  1.0
  Li+  Li4  1  0.24048379  0.48921835  0.73878050  1.0
  Li+  Li5  1  0.74100000  0.49100000  0.74100000  1.0
  Li+  Li6  1  0.50900000  0.99100000  0.50900000  1.0
  Li+  Li7  1  0.50900000  0.49100000  0.50900000  1.0
  Li+  Li8  1  0.24100000  0.99100000  0.00900000  1.0
  Li+  Li9  1  0.74100000  0.99100000  0.50900000  1.0
  Li+  Li10  1  0.20307000  0.20573000  0.24867000  1.0
  Li+  Li11  1  0.70305604  0.70555939  0.74550370  1.0
  Li+  Li12  1  0.70472579  0.20849600  0.24805950  1.0
  Li+  Li13  1  0.00133000  0.29693000  0.45573000  1.0
  Li+  Li14  1  0.00133000  0.79693000  0.95573000  1.0
  Li+  Li15  1  0.50133000  0.29693000  0.95573000  1.0
  Li+  Li16  1  0.29427000  0.99867000  0.74867000  1.0
  Li+  Li17  1  0.29427000  0.99867000  0.24867000  1.0
  Li+  Li18  1  0.79427000  0.49867000  0.24867000  1.0
  Li+  Li19  1  0.29427000  0.79693000  0.74867000  1.0
  Li+  Li20  1  0.29427000  0.79693000  0.24867000  1.0
  Li+  Li21  1  0.29427000  0.29693000  0.24867000  1.0
  Li+  Li22  1  0.79427000  0.79693000  0.74867000  1.0
  Li+  Li23  1  0.79427000  0.79693000  0.24867000  1.0
  Li+  Li24  1  0.79866917  0.29462518  0.24910837  1.0
  Li+  Li25  1  0.00133000  0.70573000  0.74867000  1.0
  Li+  Li26  1  0.00133000  0.70573000  0.24867000  1.0
  Li+  Li27  1  0.00133000  0.20573000  0.24867000  1.0
  Li+  Li28  1  0.50156313  0.70980525  0.25120231  1.0
  Li+  Li29  1  0.00133000  0.79693000  0.24867000  1.0
  Li+  Li30  1  0.50133000  0.29693000  0.74867000  1.0
  Li+  Li31  1  0.50198894  0.79665399  0.24654535  1.0
  Li+  Li32  1  0.50497844  0.70579204  0.04628865  1.0
  Li+  Li33  1  0.20307000  0.99867000  0.24867000  1.0
  Li+  Li34  1  0.20307000  0.49867000  0.24867000  1.0
  Li+  Li35  1  0.70307000  0.49867000  0.24867000  1.0
  Li+  Li36  1  0.00133000  0.49867000  0.45573000  1.0
  Li+  Li37  1  0.50194092  0.49912123  0.45776031  1.0
  Li+  Li38  1  0.50133000  0.99867000  0.95573000  1.0
  Li+  Li39  1  0.50495774  0.49290866  0.95766232  1.0
  Li+  Li40  1  0.29427000  0.99867000  0.54693000  1.0
  Li+  Li41  1  0.29427000  0.49867000  0.54693000  1.0
  Li+  Li42  1  0.29427000  0.49867000  0.04693000  1.0
  Li+  Li43  1  0.79427000  0.49867000  0.54693000  1.0
  Li+  Li44  1  0.79427000  0.49867000  0.04693000  1.0
  Li+  Li45  1  0.20307000  0.99867000  0.45573000  1.0
  Li+  Li46  1  0.20307000  0.99867000  0.95573000  1.0
  Li+  Li47  1  0.70307000  0.99867000  0.95573000  1.0
  P5+  P48  1  0.24676615  0.75005777  0.49487906  1.0
  P5+  P49  1  0.24945677  0.25065911  0.49965591  1.0
  P5+  P50  1  0.25000000  0.75000000  0.00000000  1.0
  P5+  P51  1  0.25000000  0.25000000  0.00000000  1.0
  P5+  P52  1  0.75000000  0.75000000  0.50000000  1.0
  P5+  P53  1  0.75000000  0.25000000  0.50000000  1.0
  P5+  P54  1  0.75000000  0.75000000  0.00000000  1.0
  P5+  P55  1  0.75030870  0.24814830  0.99654392  1.0
  S2-  S56  1  0.11862271  0.87604454  0.62405307  1.0
  S2-  S57  1  0.12500000  0.37500000  0.62500000  1.0
  S2-  S58  1  0.12500000  0.87500000  0.12500000  1.0
  S2-  S59  1  0.12749315  0.37241233  0.12612684  1.0
  S2-  S60  1  0.62500000  0.87500000  0.62500000  1.0
  S2-  S61  1  0.62500000  0.37500000  0.62500000  1.0
  S2-  S62  1  0.62514246  0.87824433  0.12427605  1.0
  S2-  S63  1  0.62500000  0.37500000  0.12500000  1.0
  S2-  S64  1  0.31061521  0.69464373  0.67534687  1.0
  S2-  S65  1  0.30886891  0.19111044  0.67488151  1.0
  S2-  S66  1  0.30825000  0.69175000  0.17475000  1.0
  S2-  S67  1  0.30825000  0.19175000  0.17475000  1.0
  S2-  S68  1  0.80825000  0.69175000  0.67475000  1.0
  S2-  S69  1  0.80825000  0.19175000  0.67475000  1.0
  S2-  S70  1  0.80825000  0.69175000  0.17475000  1.0
  S2-  S71  1  0.80825000  0.19175000  0.17475000  1.0
  S2-  S72  1  0.30825000  0.69175000  0.44175000  1.0
  S2-  S73  1  0.30825000  0.19175000  0.44175000  1.0
  S2-  S74  1  0.30825000  0.69175000  0.94175000  1.0
  S2-  S75  1  0.30825000  0.19175000  0.94175000  1.0
  S2-  S76  1  0.80825000  0.69175000  0.44175000  1.0
  S2-  S77  1  0.81026326  0.18774211  0.44331668  1.0
  S2-  S78  1  0.80825000  0.69175000  0.94175000  1.0
  S2-  S79  1  0.80712631  0.18781137  0.94460122  1.0
  S2-  S80  1  0.30825000  0.92475000  0.44175000  1.0
  S2-  S81  1  0.30825000  0.42475000  0.44175000  1.0
  S2-  S82  1  0.30825000  0.92475000  0.94175000  1.0
  S2-  S83  1  0.30825000  0.42475000  0.94175000  1.0
  S2-  S84  1  0.80825000  0.92475000  0.44175000  1.0
  S2-  S85  1  0.80825000  0.42475000  0.44175000  1.0
  S2-  S86  1  0.80825000  0.92475000  0.94175000  1.0
  S2-  S87  1  0.80825000  0.42475000  0.94175000  1.0
  S2-  S88  1  0.07471234  0.68970471  0.44496474  1.0
  S2-  S89  1  0.07525000  0.19175000  0.44175000  1.0
  S2-  S90  1  0.07607032  0.68508193  0.94354904  1.0
  S2-  S91  1  0.07305095  0.18932324  0.94018157  1.0
  S2-  S92  1  0.57525000  0.69175000  0.44175000  1.0
  S2-  S93  1  0.57525000  0.19175000  0.44175000  1.0
  S2-  S94  1  0.57525000  0.69175000  0.94175000  1.0
  S2-  S95  1  0.57525000  0.19175000  0.94175000  1.0
  I-  I96  1  0.00000000  0.00000000  0.75000000  1.0
  I-  I97  1  0.00000000  0.50000000  0.75000000  1.0
  I-  I98  1  0.00000000  0.00000000  0.25000000  1.0
  I-  I99  1  0.00000000  0.50000000  0.25000000  1.0
  I-  I100  1  0.49997645  0.99829068  0.75036125  1.0
  I-  I101  1  0.50287644  0.49661903  0.74595804  1.0
  I-  I102  1  0.50210441  0.00141980  0.24670263  1.0
  I-  I103  1  0.50306908  0.50253945  0.24854049  1.0
