# generated using pymatgen
data_Li6PS5I
_symmetry_space_group_name_H-M   'P 1'
_cell_length_a   14.34842696
_cell_length_b   14.34842696
_cell_length_c   14.34842696
_cell_angle_alpha   60.00000000
_cell_angle_beta   60.00000000
_cell_angle_gamma   60.00000000
_symmetry_Int_Tables_number   1
_chemical_formula_structural   Li6PS5I
_chemical_formula_sum   'Li48 P8 S40 I8'
_cell_volume   2088.80489279
_cell_formula_units_Z   8
loop_
 _symmetry_equiv_pos_site_id
 _symmetry_equiv_pos_as_xyz
  1  'x, y, z'
loop_
 _atom_type_symbol
 _atom_type_oxidation_number
  Li+  1.0
  P5+  5.0
  S2-  -2.0
  I-  -1.0
loop_
 _atom_site_type_symbol
 _atom_site_label
 _atom_site_symmetry_multiplicity
 _atom_site_fract_x
 _atom_site_fract_y
 _atom_site_fract_z
 _atom_site_occupancy
  Li+  Li0  1  0.74100000  0.00900000  0.74100000  1.0
  Li+  Li1  1  0.00900000  0.24100000  0.74100000  1.0
  Li+  Li2  1  0.00900000  0.74100000  0.74100000  1.0
  Li+  Li3  1  0.50900000  0.24100000  0.24100000  1.0
  Li+  Li4  1  0.24100000  0.00900000  0.50900000  1.0
  Li+  Li5  1  0.74100000  0.00900000  0.50900000  1.0
  Li+  Li6  1  0.50900000  0.24100000  0.00900000  1.0
  Li+  Li7  1  0.50900000  0.24100000  0.50900000  1.0
  Li+  Li8  1  0.24100000  0.74100000  0.00900000  1.0
  Li+  Li9  1  0.74100000  0.24100000  0.00900000  1.0
  Li+  Li10  1  0.20307000  0.50133000  0.79427000  1.0
  Li+  Li11  1  0.70307000  0.00133000  0.29427000  1.0
  Li+  Li12  1  0.70307000  0.50133000  0.79427000  1.0
  Li+  Li13  1  0.00133000  0.29427000  0.70307000  1.0
  Li+  Li14  1  0.00133000  0.79427000  0.20307000  1.0
  Li+  Li15  1  0.50133000  0.79427000  0.70307000  1.0
  Li+  Li16  1  0.29427000  0.00133000  0.00133000  1.0
  Li+  Li17  1  0.29427000  0.50133000  0.00133000  1.0
  Li+  Li18  1  0.79427000  0.50133000  0.50133000  1.0
  Li+  Li19  1  0.29427000  0.00133000  0.20307000  1.0
  Li+  Li20  1  0.29427000  0.50133000  0.20307000  1.0
  Li+  Li21  1  0.29427000  0.50133000  0.70307000  1.0
  Li+  Li22  1  0.79427000  0.00133000  0.20307000  1.0
  Li+  Li23  1  0.79427000  0.50133000  0.20307000  1.0
  Li+  Li24  1  0.79427000  0.50133000  0.70307000  1.0
  Li+  Li25  1  0.00133000  0.00133000  0.29427000  1.0
  Li+  Li26  1  0.00133000  0.50133000  0.29427000  1.0
  Li+  Li27  1  0.00133000  0.50133000  0.79427000  1.0
  Li+  Li28  1  0.50133000  0.50133000  0.29427000  1.0
  Li+  Li29  1  0.00133000  0.50133000  0.20307000  1.0
  Li+  Li30  1  0.50133000  0.00133000  0.70307000  1.0
  Li+  Li31  1  0.50133000  0.50133000  0.20307000  1.0
  Li+  Li32  1  0.50133000  0.70307000  0.29427000  1.0
  Li+  Li33  1  0.20307000  0.50133000  0.00133000  1.0
  Li+  Li34  1  0.20307000  0.50133000  0.50133000  1.0
  Li+  Li35  1  0.70307000  0.50133000  0.50133000  1.0
  Li+  Li36  1  0.00133000  0.29427000  0.50133000  1.0
  Li+  Li37  1  0.50133000  0.29427000  0.50133000  1.0
  Li+  Li38  1  0.50133000  0.79427000  0.00133000  1.0
  Li+  Li39  1  0.50133000  0.79427000  0.50133000  1.0
  Li+  Li40  1  0.29427000  0.20307000  0.00133000  1.0
  Li+  Li41  1  0.29427000  0.20307000  0.50133000  1.0
  Li+  Li42  1  0.29427000  0.70307000  0.50133000  1.0
  Li+  Li43  1  0.79427000  0.20307000  0.50133000  1.0
  Li+  Li44  1  0.79427000  0.70307000  0.50133000  1.0
  Li+  Li45  1  0.20307000  0.29427000  0.00133000  1.0
  Li+  Li46  1  0.20307000  0.79427000  0.00133000  1.0
  Li+  Li47  1  0.70307000  0.79427000  0.00133000  1.0
  P5+  P1  1  0.25000000  0.25000000  0.25000000  1.0
  P5+  P1  1  0.25000000  0.25000000  0.75000000  1.0
  P5+  P1  1  0.25000000  0.75000000  0.25000000  1.0
  P5+  P1  1  0.25000000  0.75000000  0.75000000  1.0
  P5+  P1  1  0.75000000  0.25000000  0.25000000  1.0
  P5+  P1  1  0.75000000  0.25000000  0.75000000  1.0
  P5+  P1  1  0.75000000  0.75000000  0.25000000  1.0
  P5+  P1  1  0.75000000  0.75000000  0.75000000  1.0
  S2-  S1  1  0.12500000  0.12500000  0.12500000  1.0
  S2-  S1  1  0.12500000  0.12500000  0.62500000  1.0
  S2-  S1  1  0.12500000  0.62500000  0.12500000  1.0
  S2-  S1  1  0.12500000  0.62500000  0.62500000  1.0
  S2-  S1  1  0.62500000  0.12500000  0.12500000  1.0
  S2-  S1  1  0.62500000  0.12500000  0.62500000  1.0
  S2-  S1  1  0.62500000  0.62500000  0.12500000  1.0
  S2-  S1  1  0.62500000  0.62500000  0.62500000  1.0
  S2-  S3  1  0.30825000  0.07525000  0.30825000  1.0
  S2-  S3  1  0.30825000  0.07525000  0.80825000  1.0
  S2-  S3  1  0.30825000  0.57525000  0.30825000  1.0
  S2-  S3  1  0.30825000  0.57525000  0.80825000  1.0
  S2-  S3  1  0.80825000  0.07525000  0.30825000  1.0
  S2-  S3  1  0.80825000  0.07525000  0.80825000  1.0
  S2-  S3  1  0.80825000  0.57525000  0.30825000  1.0
  S2-  S3  1  0.80825000  0.57525000  0.80825000  1.0
  S2-  S3  1  0.30825000  0.30825000  0.30825000  1.0
  S2-  S3  1  0.30825000  0.30825000  0.80825000  1.0
  S2-  S3  1  0.30825000  0.80825000  0.30825000  1.0
  S2-  S3  1  0.30825000  0.80825000  0.80825000  1.0
  S2-  S3  1  0.80825000  0.30825000  0.30825000  1.0
  S2-  S3  1  0.80825000  0.30825000  0.80825000  1.0
  S2-  S3  1  0.80825000  0.80825000  0.30825000  1.0
  S2-  S3  1  0.80825000  0.80825000  0.80825000  1.0
  S2-  S3  1  0.30825000  0.30825000  0.07525000  1.0
  S2-  S3  1  0.30825000  0.30825000  0.57525000  1.0
  S2-  S3  1  0.30825000  0.80825000  0.07525000  1.0
  S2-  S3  1  0.30825000  0.80825000  0.57525000  1.0
  S2-  S3  1  0.80825000  0.30825000  0.07525000  1.0
  S2-  S3  1  0.80825000  0.30825000  0.57525000  1.0
  S2-  S3  1  0.80825000  0.80825000  0.07525000  1.0
  S2-  S3  1  0.80825000  0.80825000  0.57525000  1.0
  S2-  S3  1  0.07525000  0.30825000  0.30825000  1.0
  S2-  S3  1  0.07525000  0.30825000  0.80825000  1.0
  S2-  S3  1  0.07525000  0.80825000  0.30825000  1.0
  S2-  S3  1  0.07525000  0.80825000  0.80825000  1.0
  S2-  S3  1  0.57525000  0.30825000  0.30825000  1.0
  S2-  S3  1  0.57525000  0.30825000  0.80825000  1.0
  S2-  S3  1  0.57525000  0.80825000  0.30825000  1.0
  S2-  S3  1  0.57525000  0.80825000  0.80825000  1.0
  I-  I1  1  0.00000000  0.00000000  0.00000000  1.0
  I-  I1  1  0.00000000  0.00000000  0.50000000  1.0
  I-  I1  1  0.00000000  0.50000000  0.00000000  1.0
  I-  I1  1  0.00000000  0.50000000  0.50000000  1.0
  I-  I1  1  0.50000000  0.00000000  0.00000000  1.0
  I-  I1  1  0.50000000  0.00000000  0.50000000  1.0
  I-  I1  1  0.50000000  0.50000000  0.00000000  1.0
  I-  I1  1  0.50000000  0.50000000  0.50000000  1.0
