# generated using pymatgen
data_Li6PS5Br
_symmetry_space_group_name_H-M   'P 1'
_cell_length_a   7.05677011
_cell_length_b   35.28385056
_cell_length_c   14.11354023
_cell_angle_alpha   60.00000000
_cell_angle_beta   120.00000000
_cell_angle_gamma   120.00000000
_symmetry_Int_Tables_number   1
_chemical_formula_structural   Li6PS5Br
_chemical_formula_sum   'Li60 P10 S50 Br10'
_cell_volume   2484.86564252
_cell_formula_units_Z   10
loop_
 _symmetry_equiv_pos_site_id
 _symmetry_equiv_pos_as_xyz
  1  'x, y, z'
loop_
 _atom_type_symbol
 _atom_type_oxidation_number
  Li+  1.0
  P5+  5.0
  S2-  -2.0
  Br-  -1.0
loop_
 _atom_site_type_symbol
 _atom_site_label
 _atom_site_symmetry_multiplicity
 _atom_site_fract_x
 _atom_site_fract_y
 _atom_site_fract_z
 _atom_site_occupancy
  Li+  Li0  1  0.21100000  0.26780000  0.64450000  1.0
  Li+  Li1  1  0.21006818  0.86806526  0.14724455  1.0
  Li+  Li2  1  0.66100000  0.95780000  0.29150000  1.0
  Li+  Li3  1  0.66100000  0.35780000  0.29150000  1.0
  Li+  Li4  1  0.91700000  0.26780000  0.64450000  1.0
  Li+  Li5  1  0.91812579  0.95383110  0.14180676  1.0
  Li+  Li6  1  0.91700000  0.55780000  0.14450000  1.0
  Li+  Li7  1  0.91700000  0.35780000  0.14450000  1.0
  Li+  Li8  1  0.20615626  0.47024264  0.79510879  1.0
  Li+  Li9  1  0.20930482  0.41762823  0.41502571  1.0
  Li+  Li10  1  0.21389267  0.81683010  0.91793746  1.0
  Li+  Li11  1  0.65686834  0.35258855  0.14630606  1.0
  Li+  Li12  1  0.66397341  0.15976257  0.14870132  1.0
  Li+  Li13  1  0.21100000  0.55780000  0.91950000  1.0
  Li+  Li14  1  0.21100000  0.01660000  0.64450000  1.0
  Li+  Li15  1  0.01280000  0.90256000  0.00640000  1.0
  Li+  Li16  1  0.01280000  0.50256000  0.00640000  1.0
  Li+  Li17  1  0.01280000  0.30256000  0.00640000  1.0
  Li+  Li18  1  0.48720000  0.99744000  0.74360000  1.0
  Li+  Li19  1  0.01280000  0.90256000  0.24360000  1.0
  Li+  Li20  1  0.01280000  0.79744000  0.50640000  1.0
  Li+  Li21  1  0.01359121  0.59595443  0.00665567  1.0
  Li+  Li22  1  0.48720000  0.79744000  0.00640000  1.0
  Li+  Li23  1  0.35706928  0.07845216  0.73923452  1.0
  Li+  Li24  1  0.35780000  0.88052000  0.23880000  1.0
  Li+  Li25  1  0.35780000  0.68052000  0.23880000  1.0
  Li+  Li26  1  0.02240000  0.52844000  0.45130000  1.0
  Li+  Li27  1  0.02746959  0.72910508  0.95330419  1.0
  Li+  Li28  1  0.02088452  0.12901635  0.95254407  1.0
  Li+  Li29  1  0.59398470  0.79058179  0.73552390  1.0
  Li+  Li30  1  0.59740000  0.39552000  0.73880000  1.0
  Li+  Li31  1  0.59740000  0.59552000  0.23880000  1.0
  Li+  Li32  1  0.59740000  0.32844000  0.73880000  1.0
  Li+  Li33  1  0.02240000  0.88052000  0.73880000  1.0
  Li+  Li34  1  0.02240000  0.68052000  0.73880000  1.0
  Li+  Li35  1  0.02240000  0.28052000  0.73880000  1.0
  Li+  Li36  1  0.02240000  0.08052000  0.73880000  1.0
  Li+  Li37  1  0.01970526  0.68099967  0.24566088  1.0
  Li+  Li38  1  0.02240000  0.48052000  0.23880000  1.0
  Li+  Li39  1  0.02240000  0.72844000  0.73880000  1.0
  Li+  Li40  1  0.02264905  0.52993779  0.23745347  1.0
  Li+  Li41  1  0.02240000  0.08052000  0.57110000  1.0
  Li+  Li42  1  0.02240000  0.08052000  0.07110000  1.0
  Li+  Li43  1  0.02240000  0.59552000  0.57110000  1.0
  Li+  Li44  1  0.02240000  0.99552000  0.07110000  1.0
  Li+  Li45  1  0.35765895  0.99478947  0.73787981  1.0
  Li+  Li46  1  0.35780000  0.79552000  0.73880000  1.0
  Li+  Li47  1  0.35780000  0.39552000  0.73880000  1.0
  Li+  Li48  1  0.35780000  0.99552000  0.23880000  1.0
  Li+  Li49  1  0.35876548  0.79519151  0.23693724  1.0
  Li+  Li50  1  0.35780000  0.19552000  0.23880000  1.0
  Li+  Li51  1  0.02240000  0.99552000  0.45130000  1.0
  Li+  Li52  1  0.02240000  0.39552000  0.95130000  1.0
  Li+  Li53  1  0.59740000  0.19552000  0.57110000  1.0
  Li+  Li54  1  0.59740000  0.99552000  0.07110000  1.0
  Li+  Li55  1  0.35780000  0.99552000  0.45130000  1.0
  Li+  Li56  1  0.35780000  0.59552000  0.45130000  1.0
  Li+  Li57  1  0.35780000  0.19552000  0.45130000  1.0
  Li+  Li58  1  0.35780000  0.99552000  0.95130000  1.0
  Li+  Li59  1  0.35780000  0.59552000  0.95130000  1.0
  P5+  P60  1  0.50184907  0.89958536  0.49874686  1.0
  P5+  P61  1  0.50000000  0.70000000  0.50000000  1.0
  P5+  P62  1  0.50000000  0.50000000  0.50000000  1.0
  P5+  P63  1  0.50000000  0.30000000  0.50000000  1.0
  P5+  P64  1  0.50000000  0.10000000  0.50000000  1.0
  P5+  P65  1  0.50000000  0.90000000  0.00000000  1.0
  P5+  P66  1  0.49445403  0.69477721  0.00325236  1.0
  P5+  P67  1  0.49965198  0.49942295  0.00195876  1.0
  P5+  P68  1  0.50000000  0.30000000  0.00000000  1.0
  P5+  P69  1  0.50000000  0.10000000  0.00000000  1.0
  S2-  S70  1  0.61810000  0.87638000  0.67715000  1.0
  S2-  S71  1  0.61810000  0.67638000  0.67715000  1.0
  S2-  S72  1  0.61810000  0.47638000  0.67715000  1.0
  S2-  S73  1  0.61810000  0.27638000  0.67715000  1.0
  S2-  S74  1  0.61828837  0.07736139  0.67982809  1.0
  S2-  S75  1  0.61810000  0.87638000  0.17715000  1.0
  S2-  S76  1  0.61810000  0.67638000  0.17715000  1.0
  S2-  S77  1  0.61810000  0.47638000  0.17715000  1.0
  S2-  S78  1  0.61810000  0.27638000  0.17715000  1.0
  S2-  S79  1  0.61810000  0.07638000  0.17715000  1.0
  S2-  S80  1  0.61810000  0.87638000  0.44095000  1.0
  S2-  S81  1  0.61810000  0.67638000  0.44095000  1.0
  S2-  S82  1  0.61810000  0.47638000  0.44095000  1.0
  S2-  S83  1  0.61810000  0.27638000  0.44095000  1.0
  S2-  S84  1  0.61810000  0.07638000  0.44095000  1.0
  S2-  S85  1  0.61810000  0.87638000  0.94095000  1.0
  S2-  S86  1  0.61963231  0.67593568  0.94109857  1.0
  S2-  S87  1  0.61810000  0.47638000  0.94095000  1.0
  S2-  S88  1  0.61745587  0.27828211  0.94187547  1.0
  S2-  S89  1  0.61810000  0.07638000  0.94095000  1.0
  S2-  S90  1  0.61810000  0.97086000  0.44095000  1.0
  S2-  S91  1  0.61810000  0.77086000  0.44095000  1.0
  S2-  S92  1  0.61810000  0.57086000  0.44095000  1.0
  S2-  S93  1  0.61810000  0.37086000  0.44095000  1.0
  S2-  S94  1  0.61810000  0.17086000  0.44095000  1.0
  S2-  S95  1  0.61810065  0.96801282  0.93725752  1.0
  S2-  S96  1  0.61810000  0.77086000  0.94095000  1.0
  S2-  S97  1  0.61810000  0.57086000  0.94095000  1.0
  S2-  S98  1  0.61500957  0.37251251  0.94377351  1.0
  S2-  S99  1  0.61915737  0.17237649  0.93805809  1.0
  S2-  S100  1  0.14570000  0.87638000  0.44095000  1.0
  S2-  S101  1  0.14570000  0.67638000  0.44095000  1.0
  S2-  S102  1  0.14368881  0.47605836  0.43959377  1.0
  S2-  S103  1  0.14408918  0.26985814  0.43811837  1.0
  S2-  S104  1  0.14570000  0.07638000  0.44095000  1.0
  S2-  S105  1  0.14570000  0.87638000  0.94095000  1.0
  S2-  S106  1  0.14570000  0.67638000  0.94095000  1.0
  S2-  S107  1  0.14420614  0.47419198  0.94167105  1.0
  S2-  S108  1  0.14570000  0.27638000  0.94095000  1.0
  S2-  S109  1  0.14396752  0.07327718  0.93836244  1.0
  S2-  S110  1  0.00000000  0.00000000  0.75000000  1.0
  S2-  S111  1  0.00000000  0.60000000  0.75000000  1.0
  S2-  S112  1  0.00000000  0.00000000  0.25000000  1.0
  S2-  S113  1  0.75000000  0.85000000  0.37500000  1.0
  S2-  S114  1  0.75000000  0.65000000  0.37500000  1.0
  S2-  S115  1  0.75232953  0.44634599  0.37436405  1.0
  S2-  S116  1  0.75453429  0.24901353  0.37681772  1.0
  S2-  S117  1  0.75000000  0.85000000  0.87500000  1.0
  S2-  S118  1  0.75000000  0.65000000  0.87500000  1.0
  S2-  S119  1  0.75061835  0.45021094  0.87580789  1.0
  Br-  Br120  1  0.00000000  0.80000000  0.75000000  1.0
  Br-  Br121  1  0.00000000  0.40000000  0.75000000  1.0
  Br-  Br122  1  0.00000000  0.20000000  0.75000000  1.0
  Br-  Br123  1  0.00000000  0.80000000  0.25000000  1.0
  Br-  Br124  1  0.00000000  0.60000000  0.25000000  1.0
  Br-  Br125  1  0.00000000  0.40000000  0.25000000  1.0
  Br-  Br126  1  0.00000000  0.20000000  0.25000000  1.0
  Br-  Br127  1  0.75000000  0.05000000  0.37500000  1.0
  Br-  Br128  1  0.75000000  0.25000000  0.87500000  1.0
  Br-  Br129  1  0.75000000  0.05000000  0.87500000  1.0
