# generated using pymatgen
data_Li6PS5Br
_symmetry_space_group_name_H-M   'P 1'
_cell_length_a   14.06344575
_cell_length_b   7.03172287
_cell_length_c   35.15861437
_cell_angle_alpha   120.00000000
_cell_angle_beta   120.00000000
_cell_angle_gamma   60.00000000
_symmetry_Int_Tables_number   1
_chemical_formula_structural   Li6PS5Br
_chemical_formula_sum   'Li60 P10 S50 Br10'
_cell_volume   2458.50016334
_cell_formula_units_Z   10
loop_
 _symmetry_equiv_pos_site_id
 _symmetry_equiv_pos_as_xyz
  1  'x, y, z'
loop_
 _atom_type_symbol
 _atom_type_oxidation_number
  Li+  1.0
  P5+  5.0
  S2-  -2.0
  Br-  -1.0
loop_
 _atom_site_type_symbol
 _atom_site_label
 _atom_site_symmetry_multiplicity
 _atom_site_fract_x
 _atom_site_fract_y
 _atom_site_fract_z
 _atom_site_occupancy
  Li+  Li0  1  0.89450000  0.45566667  0.73220000  1.0
  Li+  Li1  1  0.39450000  0.45566667  0.13220000  1.0
  Li+  Li2  1  0.54150000  0.00566667  0.04220000  1.0
  Li+  Li3  1  0.54150000  0.00566667  0.64220000  1.0
  Li+  Li4  1  0.89450000  0.74966667  0.73220000  1.0
  Li+  Li5  1  0.39450000  0.74966667  0.04220000  1.0
  Li+  Li6  1  0.39450000  0.74966667  0.44220000  1.0
  Li+  Li7  1  0.39450000  0.74966667  0.64220000  1.0
  Li+  Li8  1  0.04150000  0.45566667  0.53220000  1.0
  Li+  Li9  1  0.66950000  0.45566667  0.58340000  1.0
  Li+  Li10  1  0.16950000  0.45566667  0.18340000  1.0
  Li+  Li11  1  0.39450000  0.00566667  0.64220000  1.0
  Li+  Li12  1  0.39450000  0.00566667  0.84220000  1.0
  Li+  Li13  1  0.16950000  0.45566667  0.44220000  1.0
  Li+  Li14  1  0.89450000  0.45566667  0.98340000  1.0
  Li+  Li15  1  0.25640000  0.65386667  0.09744000  1.0
  Li+  Li16  1  0.25640000  0.65386667  0.49744000  1.0
  Li+  Li17  1  0.25640000  0.65386667  0.69744000  1.0
  Li+  Li18  1  0.99360000  0.17946667  0.00256000  1.0
  Li+  Li19  1  0.49360000  0.65386667  0.09744000  1.0
  Li+  Li20  1  0.75640000  0.65386667  0.20256000  1.0
  Li+  Li21  1  0.25640000  0.65386667  0.40256000  1.0
  Li+  Li22  1  0.25640000  0.17946667  0.20256000  1.0
  Li+  Li23  1  0.98880000  0.30886667  0.91948000  1.0
  Li+  Li24  1  0.48880000  0.30886667  0.11948000  1.0
  Li+  Li25  1  0.48880000  0.30886667  0.31948000  1.0
  Li+  Li26  1  0.70130000  0.64426667  0.47156000  1.0
  Li+  Li27  1  0.20130000  0.64426667  0.27156000  1.0
  Li+  Li28  1  0.20130000  0.64426667  0.87156000  1.0
  Li+  Li29  1  0.98880000  0.06926667  0.20448000  1.0
  Li+  Li30  1  0.98880000  0.06926667  0.60448000  1.0
  Li+  Li31  1  0.48880000  0.06926667  0.40448000  1.0
  Li+  Li32  1  0.98880000  0.06926667  0.67156000  1.0
  Li+  Li33  1  0.98880000  0.64426667  0.11948000  1.0
  Li+  Li34  1  0.98880000  0.64426667  0.31948000  1.0
  Li+  Li35  1  0.98880000  0.64426667  0.71948000  1.0
  Li+  Li36  1  0.98880000  0.64426667  0.91948000  1.0
  Li+  Li37  1  0.48880000  0.64426667  0.31948000  1.0
  Li+  Li38  1  0.48880000  0.64426667  0.51948000  1.0
  Li+  Li39  1  0.98880000  0.64426667  0.27156000  1.0
  Li+  Li40  1  0.48880000  0.64426667  0.47156000  1.0
  Li+  Li41  1  0.82110000  0.64426667  0.91948000  1.0
  Li+  Li42  1  0.32110000  0.64426667  0.91948000  1.0
  Li+  Li43  1  0.82110000  0.64426667  0.40448000  1.0
  Li+  Li44  1  0.32110000  0.64426667  0.00448000  1.0
  Li+  Li45  1  0.98880000  0.30886667  0.00448000  1.0
  Li+  Li46  1  0.98880000  0.30886667  0.20448000  1.0
  Li+  Li47  1  0.98880000  0.30886667  0.60448000  1.0
  Li+  Li48  1  0.48880000  0.30886667  0.00448000  1.0
  Li+  Li49  1  0.48880000  0.30886667  0.20448000  1.0
  Li+  Li50  1  0.48880000  0.30886667  0.80448000  1.0
  Li+  Li51  1  0.70130000  0.64426667  0.00448000  1.0
  Li+  Li52  1  0.20130000  0.64426667  0.60448000  1.0
  Li+  Li53  1  0.82110000  0.06926667  0.80448000  1.0
  Li+  Li54  1  0.32110000  0.06926667  0.00448000  1.0
  Li+  Li55  1  0.70130000  0.30886667  0.00448000  1.0
  Li+  Li56  1  0.70130000  0.30886667  0.40448000  1.0
  Li+  Li57  1  0.70130000  0.30886667  0.80448000  1.0
  Li+  Li58  1  0.20130000  0.30886667  0.00448000  1.0
  Li+  Li59  1  0.20130000  0.30886667  0.40448000  1.0
  P5+  P60  1  0.75000000  0.16666667  0.10000000  1.0
  P5+  P61  1  0.75000000  0.16666667  0.30000000  1.0
  P5+  P62  1  0.75000000  0.16666667  0.50000000  1.0
  P5+  P63  1  0.75000000  0.16666667  0.70000000  1.0
  P5+  P64  1  0.75000000  0.16666667  0.90000000  1.0
  P5+  P65  1  0.25000000  0.16666667  0.10000000  1.0
  P5+  P66  1  0.25000000  0.16666667  0.30000000  1.0
  P5+  P67  1  0.25000000  0.16666667  0.50000000  1.0
  P5+  P68  1  0.25000000  0.16666667  0.70000000  1.0
  P5+  P69  1  0.25000000  0.16666667  0.90000000  1.0
  S2-  S70  1  0.92715000  0.04856667  0.12362000  1.0
  S2-  S71  1  0.92715000  0.04856667  0.32362000  1.0
  S2-  S72  1  0.92715000  0.04856667  0.52362000  1.0
  S2-  S73  1  0.92715000  0.04856667  0.72362000  1.0
  S2-  S74  1  0.92715000  0.04856667  0.92362000  1.0
  S2-  S75  1  0.42715000  0.04856667  0.12362000  1.0
  S2-  S76  1  0.42715000  0.04856667  0.32362000  1.0
  S2-  S77  1  0.42715000  0.04856667  0.52362000  1.0
  S2-  S78  1  0.42715000  0.04856667  0.72362000  1.0
  S2-  S79  1  0.42715000  0.04856667  0.92362000  1.0
  S2-  S80  1  0.69095000  0.04856667  0.12362000  1.0
  S2-  S81  1  0.69095000  0.04856667  0.32362000  1.0
  S2-  S82  1  0.69095000  0.04856667  0.52362000  1.0
  S2-  S83  1  0.69095000  0.04856667  0.72362000  1.0
  S2-  S84  1  0.69095000  0.04856667  0.92362000  1.0
  S2-  S85  1  0.19095000  0.04856667  0.12362000  1.0
  S2-  S86  1  0.19095000  0.04856667  0.32362000  1.0
  S2-  S87  1  0.19095000  0.04856667  0.52362000  1.0
  S2-  S88  1  0.19095000  0.04856667  0.72362000  1.0
  S2-  S89  1  0.19095000  0.04856667  0.92362000  1.0
  S2-  S90  1  0.69095000  0.04856667  0.02914000  1.0
  S2-  S91  1  0.69095000  0.04856667  0.22914000  1.0
  S2-  S92  1  0.69095000  0.04856667  0.42914000  1.0
  S2-  S93  1  0.69095000  0.04856667  0.62914000  1.0
  S2-  S94  1  0.69095000  0.04856667  0.82914000  1.0
  S2-  S95  1  0.19095000  0.04856667  0.02914000  1.0
  S2-  S96  1  0.19095000  0.04856667  0.22914000  1.0
  S2-  S97  1  0.19095000  0.04856667  0.42914000  1.0
  S2-  S98  1  0.19095000  0.04856667  0.62914000  1.0
  S2-  S99  1  0.19095000  0.04856667  0.82914000  1.0
  S2-  S100  1  0.69095000  0.52096667  0.12362000  1.0
  S2-  S101  1  0.69095000  0.52096667  0.32362000  1.0
  S2-  S102  1  0.69095000  0.52096667  0.52362000  1.0
  S2-  S103  1  0.69095000  0.52096667  0.72362000  1.0
  S2-  S104  1  0.69095000  0.52096667  0.92362000  1.0
  S2-  S105  1  0.19095000  0.52096667  0.12362000  1.0
  S2-  S106  1  0.19095000  0.52096667  0.32362000  1.0
  S2-  S107  1  0.19095000  0.52096667  0.52362000  1.0
  S2-  S108  1  0.19095000  0.52096667  0.72362000  1.0
  S2-  S109  1  0.19095000  0.52096667  0.92362000  1.0
  S2-  S110  1  0.00000000  0.66666667  0.00000000  1.0
  S2-  S111  1  0.00000000  0.66666667  0.40000000  1.0
  S2-  S112  1  0.50000000  0.66666667  0.00000000  1.0
  S2-  S113  1  0.62500000  0.91666667  0.15000000  1.0
  S2-  S114  1  0.62500000  0.91666667  0.35000000  1.0
  S2-  S115  1  0.62500000  0.91666667  0.55000000  1.0
  S2-  S116  1  0.62500000  0.91666667  0.75000000  1.0
  S2-  S117  1  0.12500000  0.91666667  0.15000000  1.0
  S2-  S118  1  0.12500000  0.91666667  0.35000000  1.0
  S2-  S119  1  0.12500000  0.91666667  0.55000000  1.0
  Br-  Br120  1  0.00000000  0.66666667  0.20000000  1.0
  Br-  Br121  1  0.00000000  0.66666667  0.60000000  1.0
  Br-  Br122  1  0.00000000  0.66666667  0.80000000  1.0
  Br-  Br123  1  0.50000000  0.66666667  0.20000000  1.0
  Br-  Br124  1  0.50000000  0.66666667  0.40000000  1.0
  Br-  Br125  1  0.50000000  0.66666667  0.60000000  1.0
  Br-  Br126  1  0.50000000  0.66666667  0.80000000  1.0
  Br-  Br127  1  0.62500000  0.91666667  0.95000000  1.0
  Br-  Br128  1  0.12500000  0.91666667  0.75000000  1.0
  Br-  Br129  1  0.12500000  0.91666667  0.95000000  1.0
