# generated using pymatgen
data_Li6PS5Br
_symmetry_space_group_name_H-M   'P 1'
_cell_length_a   7.05677011
_cell_length_b   14.11354023
_cell_length_c   35.28385056
_cell_angle_alpha   60.00000000
_cell_angle_beta   60.00000000
_cell_angle_gamma   60.00000000
_symmetry_Int_Tables_number   1
_chemical_formula_structural   Li6PS5Br
_chemical_formula_sum   'Li60 P10 S50 Br10'
_cell_volume   2484.86564252
_cell_formula_units_Z   10
loop_
 _symmetry_equiv_pos_site_id
 _symmetry_equiv_pos_as_xyz
  1  'x, y, z'
loop_
 _atom_type_symbol
 _atom_type_oxidation_number
  Li+  1.0
  P5+  5.0
  S2-  -2.0
  Br-  -1.0
loop_
 _atom_site_type_symbol
 _atom_site_label
 _atom_site_symmetry_multiplicity
 _atom_site_fract_x
 _atom_site_fract_y
 _atom_site_fract_z
 _atom_site_occupancy
  Li+  Li0  1  0.21100000  0.10550000  0.73220000  1.0
  Li+  Li1  1  0.21100000  0.60550000  0.13220000  1.0
  Li+  Li2  1  0.66100000  0.45850000  0.04220000  1.0
  Li+  Li3  1  0.66100000  0.45850000  0.64220000  1.0
  Li+  Li4  1  0.91700000  0.10550000  0.73220000  1.0
  Li+  Li5  1  0.91700000  0.60550000  0.04220000  1.0
  Li+  Li6  1  0.91700000  0.60550000  0.44220000  1.0
  Li+  Li7  1  0.91700000  0.60550000  0.64220000  1.0
  Li+  Li8  1  0.21100000  0.95850000  0.53220000  1.0
  Li+  Li9  1  0.21100000  0.33050000  0.58340000  1.0
  Li+  Li10  1  0.21100000  0.83050000  0.18340000  1.0
  Li+  Li11  1  0.66100000  0.60550000  0.64220000  1.0
  Li+  Li12  1  0.66100000  0.60550000  0.84220000  1.0
  Li+  Li13  1  0.21100000  0.83050000  0.44220000  1.0
  Li+  Li14  1  0.21100000  0.10550000  0.98340000  1.0
  Li+  Li15  1  0.01280000  0.74360000  0.09744000  1.0
  Li+  Li16  1  0.01280000  0.74360000  0.49744000  1.0
  Li+  Li17  1  0.01280000  0.74360000  0.69744000  1.0
  Li+  Li18  1  0.48720000  0.00640000  0.00256000  1.0
  Li+  Li19  1  0.01280000  0.50640000  0.09744000  1.0
  Li+  Li20  1  0.01280000  0.24360000  0.20256000  1.0
  Li+  Li21  1  0.01280000  0.74360000  0.40256000  1.0
  Li+  Li22  1  0.48720000  0.74360000  0.20256000  1.0
  Li+  Li23  1  0.35780000  0.01120000  0.91948000  1.0
  Li+  Li24  1  0.35780000  0.51120000  0.11948000  1.0
  Li+  Li25  1  0.35780000  0.51120000  0.31948000  1.0
  Li+  Li26  1  0.02240000  0.29870000  0.47156000  1.0
  Li+  Li27  1  0.02240000  0.79870000  0.27156000  1.0
  Li+  Li28  1  0.02240000  0.79870000  0.87156000  1.0
  Li+  Li29  1  0.59740000  0.01120000  0.20448000  1.0
  Li+  Li30  1  0.59740000  0.01120000  0.60448000  1.0
  Li+  Li31  1  0.59740000  0.51120000  0.40448000  1.0
  Li+  Li32  1  0.59740000  0.01120000  0.67156000  1.0
  Li+  Li33  1  0.02240000  0.01120000  0.11948000  1.0
  Li+  Li34  1  0.02240000  0.01120000  0.31948000  1.0
  Li+  Li35  1  0.02240000  0.01120000  0.71948000  1.0
  Li+  Li36  1  0.02240000  0.01120000  0.91948000  1.0
  Li+  Li37  1  0.02240000  0.51120000  0.31948000  1.0
  Li+  Li38  1  0.02240000  0.51120000  0.51948000  1.0
  Li+  Li39  1  0.02240000  0.01120000  0.27156000  1.0
  Li+  Li40  1  0.02240000  0.51120000  0.47156000  1.0
  Li+  Li41  1  0.02240000  0.17890000  0.91948000  1.0
  Li+  Li42  1  0.02240000  0.67890000  0.91948000  1.0
  Li+  Li43  1  0.02240000  0.17890000  0.40448000  1.0
  Li+  Li44  1  0.02240000  0.67890000  0.00448000  1.0
  Li+  Li45  1  0.35780000  0.01120000  0.00448000  1.0
  Li+  Li46  1  0.35780000  0.01120000  0.20448000  1.0
  Li+  Li47  1  0.35780000  0.01120000  0.60448000  1.0
  Li+  Li48  1  0.35780000  0.51120000  0.00448000  1.0
  Li+  Li49  1  0.35780000  0.51120000  0.20448000  1.0
  Li+  Li50  1  0.35780000  0.51120000  0.80448000  1.0
  Li+  Li51  1  0.02240000  0.29870000  0.00448000  1.0
  Li+  Li52  1  0.02240000  0.79870000  0.60448000  1.0
  Li+  Li53  1  0.59740000  0.17890000  0.80448000  1.0
  Li+  Li54  1  0.59740000  0.67890000  0.00448000  1.0
  Li+  Li55  1  0.35780000  0.29870000  0.00448000  1.0
  Li+  Li56  1  0.35780000  0.29870000  0.40448000  1.0
  Li+  Li57  1  0.35780000  0.29870000  0.80448000  1.0
  Li+  Li58  1  0.35780000  0.79870000  0.00448000  1.0
  Li+  Li59  1  0.35780000  0.79870000  0.40448000  1.0
  P5+  P1  1  0.50000000  0.25000000  0.10000000  1.0
  P5+  P1  1  0.50000000  0.25000000  0.30000000  1.0
  P5+  P1  1  0.50000000  0.25000000  0.50000000  1.0
  P5+  P1  1  0.50000000  0.25000000  0.70000000  1.0
  P5+  P1  1  0.50000000  0.25000000  0.90000000  1.0
  P5+  P1  1  0.50000000  0.75000000  0.10000000  1.0
  P5+  P1  1  0.50000000  0.75000000  0.30000000  1.0
  P5+  P1  1  0.50000000  0.75000000  0.50000000  1.0
  P5+  P1  1  0.50000000  0.75000000  0.70000000  1.0
  P5+  P1  1  0.50000000  0.75000000  0.90000000  1.0
  S2-  S1  1  0.61810000  0.07285000  0.12362000  1.0
  S2-  S1  1  0.61810000  0.07285000  0.32362000  1.0
  S2-  S1  1  0.61810000  0.07285000  0.52362000  1.0
  S2-  S1  1  0.61810000  0.07285000  0.72362000  1.0
  S2-  S1  1  0.61810000  0.07285000  0.92362000  1.0
  S2-  S1  1  0.61810000  0.57285000  0.12362000  1.0
  S2-  S1  1  0.61810000  0.57285000  0.32362000  1.0
  S2-  S1  1  0.61810000  0.57285000  0.52362000  1.0
  S2-  S1  1  0.61810000  0.57285000  0.72362000  1.0
  S2-  S1  1  0.61810000  0.57285000  0.92362000  1.0
  S2-  S1  1  0.61810000  0.30905000  0.12362000  1.0
  S2-  S1  1  0.61810000  0.30905000  0.32362000  1.0
  S2-  S1  1  0.61810000  0.30905000  0.52362000  1.0
  S2-  S1  1  0.61810000  0.30905000  0.72362000  1.0
  S2-  S1  1  0.61810000  0.30905000  0.92362000  1.0
  S2-  S1  1  0.61810000  0.80905000  0.12362000  1.0
  S2-  S1  1  0.61810000  0.80905000  0.32362000  1.0
  S2-  S1  1  0.61810000  0.80905000  0.52362000  1.0
  S2-  S1  1  0.61810000  0.80905000  0.72362000  1.0
  S2-  S1  1  0.61810000  0.80905000  0.92362000  1.0
  S2-  S1  1  0.61810000  0.30905000  0.02914000  1.0
  S2-  S1  1  0.61810000  0.30905000  0.22914000  1.0
  S2-  S1  1  0.61810000  0.30905000  0.42914000  1.0
  S2-  S1  1  0.61810000  0.30905000  0.62914000  1.0
  S2-  S1  1  0.61810000  0.30905000  0.82914000  1.0
  S2-  S1  1  0.61810000  0.80905000  0.02914000  1.0
  S2-  S1  1  0.61810000  0.80905000  0.22914000  1.0
  S2-  S1  1  0.61810000  0.80905000  0.42914000  1.0
  S2-  S1  1  0.61810000  0.80905000  0.62914000  1.0
  S2-  S1  1  0.61810000  0.80905000  0.82914000  1.0
  S2-  S1  1  0.14570000  0.30905000  0.12362000  1.0
  S2-  S1  1  0.14570000  0.30905000  0.32362000  1.0
  S2-  S1  1  0.14570000  0.30905000  0.52362000  1.0
  S2-  S1  1  0.14570000  0.30905000  0.72362000  1.0
  S2-  S1  1  0.14570000  0.30905000  0.92362000  1.0
  S2-  S1  1  0.14570000  0.80905000  0.12362000  1.0
  S2-  S1  1  0.14570000  0.80905000  0.32362000  1.0
  S2-  S1  1  0.14570000  0.80905000  0.52362000  1.0
  S2-  S1  1  0.14570000  0.80905000  0.72362000  1.0
  S2-  S1  1  0.14570000  0.80905000  0.92362000  1.0
  S2-  S110  1  0.00000000  0.00000000  0.00000000  1.0
  S2-  S111  1  0.00000000  0.00000000  0.40000000  1.0
  S2-  S112  1  0.00000000  0.50000000  0.00000000  1.0
  S2-  S113  1  0.75000000  0.37500000  0.15000000  1.0
  S2-  S114  1  0.75000000  0.37500000  0.35000000  1.0
  S2-  S115  1  0.75000000  0.37500000  0.55000000  1.0
  S2-  S116  1  0.75000000  0.37500000  0.75000000  1.0
  S2-  S117  1  0.75000000  0.87500000  0.15000000  1.0
  S2-  S118  1  0.75000000  0.87500000  0.35000000  1.0
  S2-  S119  1  0.75000000  0.87500000  0.55000000  1.0
  Br-  Br120  1  0.00000000  0.00000000  0.20000000  1.0
  Br-  Br121  1  0.00000000  0.00000000  0.60000000  1.0
  Br-  Br122  1  0.00000000  0.00000000  0.80000000  1.0
  Br-  Br123  1  0.00000000  0.50000000  0.20000000  1.0
  Br-  Br124  1  0.00000000  0.50000000  0.40000000  1.0
  Br-  Br125  1  0.00000000  0.50000000  0.60000000  1.0
  Br-  Br126  1  0.00000000  0.50000000  0.80000000  1.0
  Br-  Br127  1  0.75000000  0.37500000  0.95000000  1.0
  Br-  Br128  1  0.75000000  0.87500000  0.75000000  1.0
  Br-  Br129  1  0.75000000  0.87500000  0.95000000  1.0
