# generated using pymatgen
data_LiYO2
_symmetry_space_group_name_H-M   'P 1'
_cell_length_a   18.36000000
_cell_length_b   12.37000000
_cell_length_c   12.42000000
_cell_angle_alpha   90.00000000
_cell_angle_beta   118.80000000
_cell_angle_gamma   90.00000000
_symmetry_Int_Tables_number   1
_chemical_formula_structural   LiYO2
_chemical_formula_sum   'Li48 Y48 O96'
_cell_volume   2471.83851343
_cell_formula_units_Z   48
loop_
 _symmetry_equiv_pos_site_id
 _symmetry_equiv_pos_as_xyz
  1  'x, y, z'
loop_
 _atom_type_symbol
 _atom_type_oxidation_number
  Li+  1.0
  Y3+  3.0
  O2-  -2.0
loop_
 _atom_site_type_symbol
 _atom_site_label
 _atom_site_symmetry_multiplicity
 _atom_site_fract_x
 _atom_site_fract_y
 _atom_site_fract_z
 _atom_site_occupancy
  Li+  Li1  1  0.08333333  0.43750000  0.25000000  1.0
  Li+  Li1  1  0.41666667  0.43750000  0.25000000  1.0
  Li+  Li1  1  0.75000000  0.43750000  0.25000000  1.0
  Li+  Li1  1  0.08333333  0.43750000  0.75000000  1.0
  Li+  Li1  1  0.41666667  0.43750000  0.75000000  1.0
  Li+  Li1  1  0.75000000  0.43750000  0.75000000  1.0
  Li+  Li1  1  0.08333333  0.93750000  0.25000000  1.0
  Li+  Li1  1  0.41666667  0.93750000  0.25000000  1.0
  Li+  Li1  1  0.75000000  0.93750000  0.25000000  1.0
  Li+  Li1  1  0.08333333  0.93750000  0.75000000  1.0
  Li+  Li1  1  0.41666667  0.93750000  0.75000000  1.0
  Li+  Li1  1  0.75000000  0.93750000  0.75000000  1.0
  Li+  Li1  1  0.25000000  0.18750000  0.00000000  1.0
  Li+  Li1  1  0.58333333  0.18750000  0.00000000  1.0
  Li+  Li1  1  0.91666667  0.18750000  1.00000000  1.0
  Li+  Li1  1  0.25000000  0.18750000  0.50000000  1.0
  Li+  Li1  1  0.58333333  0.18750000  0.50000000  1.0
  Li+  Li1  1  0.91666667  0.18750000  0.50000000  1.0
  Li+  Li1  1  0.25000000  0.68750000  0.00000000  1.0
  Li+  Li1  1  0.58333333  0.68750000  0.00000000  1.0
  Li+  Li1  1  0.91666667  0.68750000  1.00000000  1.0
  Li+  Li1  1  0.25000000  0.68750000  0.50000000  1.0
  Li+  Li1  1  0.58333333  0.68750000  0.50000000  1.0
  Li+  Li1  1  0.91666667  0.68750000  0.50000000  1.0
  Li+  Li1  1  0.25000000  0.06250000  0.25000000  1.0
  Li+  Li1  1  0.58333333  0.06250000  0.25000000  1.0
  Li+  Li1  1  0.91666667  0.06250000  0.25000000  1.0
  Li+  Li1  1  0.25000000  0.06250000  0.75000000  1.0
  Li+  Li1  1  0.58333333  0.06250000  0.75000000  1.0
  Li+  Li1  1  0.91666667  0.06250000  0.75000000  1.0
  Li+  Li1  1  0.25000000  0.56250000  0.25000000  1.0
  Li+  Li1  1  0.58333333  0.56250000  0.25000000  1.0
  Li+  Li1  1  0.91666667  0.56250000  0.25000000  1.0
  Li+  Li1  1  0.25000000  0.56250000  0.75000000  1.0
  Li+  Li1  1  0.58333333  0.56250000  0.75000000  1.0
  Li+  Li1  1  0.91666667  0.56250000  0.75000000  1.0
  Li+  Li1  1  0.08333333  0.31250000  0.00000000  1.0
  Li+  Li1  1  0.41666667  0.31250000  0.00000000  1.0
  Li+  Li1  1  0.75000000  0.31250000  0.00000000  1.0
  Li+  Li1  1  0.08333333  0.31250000  0.50000000  1.0
  Li+  Li1  1  0.41666667  0.31250000  0.50000000  1.0
  Li+  Li1  1  0.75000000  0.31250000  0.50000000  1.0
  Li+  Li1  1  0.08333333  0.81250000  0.00000000  1.0
  Li+  Li1  1  0.41666667  0.81250000  0.00000000  1.0
  Li+  Li1  1  0.75000000  0.81250000  1.00000000  1.0
  Li+  Li1  1  0.08333333  0.81250000  0.50000000  1.0
  Li+  Li1  1  0.41666667  0.81250000  0.50000000  1.0
  Li+  Li1  1  0.75000000  0.81250000  0.50000000  1.0
  Y3+  Y1  1  0.08333333  0.18750000  0.25000000  1.0
  Y3+  Y1  1  0.41666667  0.18750000  0.25000000  1.0
  Y3+  Y1  1  0.75000000  0.18750000  0.25000000  1.0
  Y3+  Y1  1  0.08333333  0.18750000  0.75000000  1.0
  Y3+  Y1  1  0.41666667  0.18750000  0.75000000  1.0
  Y3+  Y1  1  0.75000000  0.18750000  0.75000000  1.0
  Y3+  Y1  1  0.08333333  0.68750000  0.25000000  1.0
  Y3+  Y1  1  0.41666667  0.68750000  0.25000000  1.0
  Y3+  Y1  1  0.75000000  0.68750000  0.25000000  1.0
  Y3+  Y1  1  0.08333333  0.68750000  0.75000000  1.0
  Y3+  Y1  1  0.41666667  0.68750000  0.75000000  1.0
  Y3+  Y1  1  0.75000000  0.68750000  0.75000000  1.0
  Y3+  Y1  1  0.25000000  0.43750000  0.00000000  1.0
  Y3+  Y1  1  0.58333333  0.43750000  0.00000000  1.0
  Y3+  Y1  1  0.91666667  0.43750000  1.00000000  1.0
  Y3+  Y1  1  0.25000000  0.43750000  0.50000000  1.0
  Y3+  Y1  1  0.58333333  0.43750000  0.50000000  1.0
  Y3+  Y1  1  0.91666667  0.43750000  0.50000000  1.0
  Y3+  Y1  1  0.25000000  0.93750000  0.00000000  1.0
  Y3+  Y1  1  0.58333333  0.93750000  0.00000000  1.0
  Y3+  Y1  1  0.91666667  0.93750000  1.00000000  1.0
  Y3+  Y1  1  0.25000000  0.93750000  0.50000000  1.0
  Y3+  Y1  1  0.58333333  0.93750000  0.50000000  1.0
  Y3+  Y1  1  0.91666667  0.93750000  0.50000000  1.0
  Y3+  Y1  1  0.25000000  0.31250000  0.25000000  1.0
  Y3+  Y1  1  0.58333333  0.31250000  0.25000000  1.0
  Y3+  Y1  1  0.91666667  0.31250000  0.25000000  1.0
  Y3+  Y1  1  0.25000000  0.31250000  0.75000000  1.0
  Y3+  Y1  1  0.58333333  0.31250000  0.75000000  1.0
  Y3+  Y1  1  0.91666667  0.31250000  0.75000000  1.0
  Y3+  Y1  1  0.25000000  0.81250000  0.25000000  1.0
  Y3+  Y1  1  0.58333333  0.81250000  0.25000000  1.0
  Y3+  Y1  1  0.91666667  0.81250000  0.25000000  1.0
  Y3+  Y1  1  0.25000000  0.81250000  0.75000000  1.0
  Y3+  Y1  1  0.58333333  0.81250000  0.75000000  1.0
  Y3+  Y1  1  0.91666667  0.81250000  0.75000000  1.0
  Y3+  Y1  1  0.08333333  0.06250000  0.00000000  1.0
  Y3+  Y1  1  0.41666667  0.06250000  1.00000000  1.0
  Y3+  Y1  1  0.75000000  0.06250000  1.00000000  1.0
  Y3+  Y1  1  0.08333333  0.06250000  0.50000000  1.0
  Y3+  Y1  1  0.41666667  0.06250000  0.50000000  1.0
  Y3+  Y1  1  0.75000000  0.06250000  0.50000000  1.0
  Y3+  Y1  1  0.08333333  0.56250000  0.00000000  1.0
  Y3+  Y1  1  0.41666667  0.56250000  0.00000000  1.0
  Y3+  Y1  1  0.75000000  0.56250000  0.00000000  1.0
  Y3+  Y1  1  0.08333333  0.56250000  0.50000000  1.0
  Y3+  Y1  1  0.41666667  0.56250000  0.50000000  1.0
  Y3+  Y1  1  0.75000000  0.56250000  0.50000000  1.0
  O2-  O1  1  0.00000000  0.17500000  0.35000000  1.0
  O2-  O1  1  0.33333333  0.17500000  0.35000000  1.0
  O2-  O1  1  0.66666667  0.17500000  0.35000000  1.0
  O2-  O1  1  0.00000000  0.17500000  0.85000000  1.0
  O2-  O1  1  0.33333333  0.17500000  0.85000000  1.0
  O2-  O1  1  0.66666667  0.17500000  0.85000000  1.0
  O2-  O1  1  0.00000000  0.67500000  0.35000000  1.0
  O2-  O1  1  0.33333333  0.67500000  0.35000000  1.0
  O2-  O1  1  0.66666667  0.67500000  0.35000000  1.0
  O2-  O1  1  0.00000000  0.67500000  0.85000000  1.0
  O2-  O1  1  0.33333333  0.67500000  0.85000000  1.0
  O2-  O1  1  0.66666667  0.67500000  0.85000000  1.0
  O2-  O1  1  0.00000000  0.42500000  0.40000000  1.0
  O2-  O1  1  0.33333333  0.42500000  0.40000000  1.0
  O2-  O1  1  0.66666667  0.42500000  0.40000000  1.0
  O2-  O1  1  0.00000000  0.42500000  0.90000000  1.0
  O2-  O1  1  0.33333333  0.42500000  0.90000000  1.0
  O2-  O1  1  0.66666667  0.42500000  0.90000000  1.0
  O2-  O1  1  0.00000000  0.92500000  0.40000000  1.0
  O2-  O1  1  0.33333333  0.92500000  0.40000000  1.0
  O2-  O1  1  0.66666667  0.92500000  0.40000000  1.0
  O2-  O1  1  0.00000000  0.92500000  0.90000000  1.0
  O2-  O1  1  0.33333333  0.92500000  0.90000000  1.0
  O2-  O1  1  0.66666667  0.92500000  0.90000000  1.0
  O2-  O1  1  0.00000000  0.32500000  0.15000000  1.0
  O2-  O1  1  0.33333333  0.32500000  0.15000000  1.0
  O2-  O1  1  0.66666667  0.32500000  0.15000000  1.0
  O2-  O1  1  0.00000000  0.32500000  0.65000000  1.0
  O2-  O1  1  0.33333333  0.32500000  0.65000000  1.0
  O2-  O1  1  0.66666667  0.32500000  0.65000000  1.0
  O2-  O1  1  0.00000000  0.82500000  0.15000000  1.0
  O2-  O1  1  0.33333333  0.82500000  0.15000000  1.0
  O2-  O1  1  0.66666667  0.82500000  0.15000000  1.0
  O2-  O1  1  0.00000000  0.82500000  0.65000000  1.0
  O2-  O1  1  0.33333333  0.82500000  0.65000000  1.0
  O2-  O1  1  0.66666667  0.82500000  0.65000000  1.0
  O2-  O1  1  0.00000000  0.07500000  0.10000000  1.0
  O2-  O1  1  0.33333333  0.07500000  0.10000000  1.0
  O2-  O1  1  0.66666667  0.07500000  0.10000000  1.0
  O2-  O1  1  0.00000000  0.07500000  0.60000000  1.0
  O2-  O1  1  0.33333333  0.07500000  0.60000000  1.0
  O2-  O1  1  0.66666667  0.07500000  0.60000000  1.0
  O2-  O1  1  0.00000000  0.57500000  0.10000000  1.0
  O2-  O1  1  0.33333333  0.57500000  0.10000000  1.0
  O2-  O1  1  0.66666667  0.57500000  0.10000000  1.0
  O2-  O1  1  0.00000000  0.57500000  0.60000000  1.0
  O2-  O1  1  0.33333333  0.57500000  0.60000000  1.0
  O2-  O1  1  0.66666667  0.57500000  0.60000000  1.0
  O2-  O2  1  0.15000000  0.20000000  0.12500000  1.0
  O2-  O2  1  0.48333333  0.20000000  0.12500000  1.0
  O2-  O2  1  0.81666667  0.20000000  0.12500000  1.0
  O2-  O2  1  0.15000000  0.20000000  0.62500000  1.0
  O2-  O2  1  0.48333333  0.20000000  0.62500000  1.0
  O2-  O2  1  0.81666667  0.20000000  0.62500000  1.0
  O2-  O2  1  0.15000000  0.70000000  0.12500000  1.0
  O2-  O2  1  0.48333333  0.70000000  0.12500000  1.0
  O2-  O2  1  0.81666667  0.70000000  0.12500000  1.0
  O2-  O2  1  0.15000000  0.70000000  0.62500000  1.0
  O2-  O2  1  0.48333333  0.70000000  0.62500000  1.0
  O2-  O2  1  0.81666667  0.70000000  0.62500000  1.0
  O2-  O2  1  0.18333333  0.45000000  0.12500000  1.0
  O2-  O2  1  0.51666667  0.45000000  0.12500000  1.0
  O2-  O2  1  0.85000000  0.45000000  0.12500000  1.0
  O2-  O2  1  0.18333333  0.45000000  0.62500000  1.0
  O2-  O2  1  0.51666667  0.45000000  0.62500000  1.0
  O2-  O2  1  0.85000000  0.45000000  0.62500000  1.0
  O2-  O2  1  0.18333333  0.95000000  0.12500000  1.0
  O2-  O2  1  0.51666667  0.95000000  0.12500000  1.0
  O2-  O2  1  0.85000000  0.95000000  0.12500000  1.0
  O2-  O2  1  0.18333333  0.95000000  0.62500000  1.0
  O2-  O2  1  0.51666667  0.95000000  0.62500000  1.0
  O2-  O2  1  0.85000000  0.95000000  0.62500000  1.0
  O2-  O2  1  0.18333333  0.30000000  0.37500000  1.0
  O2-  O2  1  0.51666667  0.30000000  0.37500000  1.0
  O2-  O2  1  0.85000000  0.30000000  0.37500000  1.0
  O2-  O2  1  0.18333333  0.30000000  0.87500000  1.0
  O2-  O2  1  0.51666667  0.30000000  0.87500000  1.0
  O2-  O2  1  0.85000000  0.30000000  0.87500000  1.0
  O2-  O2  1  0.18333333  0.80000000  0.37500000  1.0
  O2-  O2  1  0.51666667  0.80000000  0.37500000  1.0
  O2-  O2  1  0.85000000  0.80000000  0.37500000  1.0
  O2-  O2  1  0.18333333  0.80000000  0.87500000  1.0
  O2-  O2  1  0.51666667  0.80000000  0.87500000  1.0
  O2-  O2  1  0.85000000  0.80000000  0.87500000  1.0
  O2-  O2  1  0.15000000  0.05000000  0.37500000  1.0
  O2-  O2  1  0.48333333  0.05000000  0.37500000  1.0
  O2-  O2  1  0.81666667  0.05000000  0.37500000  1.0
  O2-  O2  1  0.15000000  0.05000000  0.87500000  1.0
  O2-  O2  1  0.48333333  0.05000000  0.87500000  1.0
  O2-  O2  1  0.81666667  0.05000000  0.87500000  1.0
  O2-  O2  1  0.15000000  0.55000000  0.37500000  1.0
  O2-  O2  1  0.48333333  0.55000000  0.37500000  1.0
  O2-  O2  1  0.81666667  0.55000000  0.37500000  1.0
  O2-  O2  1  0.15000000  0.55000000  0.87500000  1.0
  O2-  O2  1  0.48333333  0.55000000  0.87500000  1.0
  O2-  O2  1  0.81666667  0.55000000  0.87500000  1.0
