# generated using pymatgen
data_Li3ScCl6
_symmetry_space_group_name_H-M   'P 1'
_cell_length_a   25.39040000
_cell_length_b   12.75166986
_cell_length_c   12.71860000
_cell_angle_alpha   60.08575114
_cell_angle_beta   109.43800000
_cell_angle_gamma   99.55311156
_symmetry_Int_Tables_number   1
_chemical_formula_structural   Li3ScCl6
_chemical_formula_sum   'Li48 Sc16 Cl96'
_cell_volume   3365.84294566
_cell_formula_units_Z   16
loop_
 _symmetry_equiv_pos_site_id
 _symmetry_equiv_pos_as_xyz
  1  'x, y, z'
loop_
 _atom_type_symbol
 _atom_type_oxidation_number
  Li+  1.0
  Sc3+  3.0
  Cl-  -1.0
loop_
 _atom_site_type_symbol
 _atom_site_label
 _atom_site_symmetry_multiplicity
 _atom_site_fract_x
 _atom_site_fract_y
 _atom_site_fract_z
 _atom_site_occupancy
  Li+  Li0  1  0.00000000  0.82640000  0.58680000  1.0
  Li+  Li1  1  0.50000000  0.82640000  0.58680000  1.0
  Li+  Li2  1  0.00000000  0.32640000  0.58680000  1.0
  Li+  Li3  1  0.50000000  0.32640000  0.58680000  1.0
  Li+  Li4  1  0.00000000  0.82640000  0.08680000  1.0
  Li+  Li5  1  0.50000000  0.82640000  0.08680000  1.0
  Li+  Li6  1  0.00129050  0.32669064  0.08479098  1.0
  Li+  Li7  1  0.50000000  0.32640000  0.08680000  1.0
  Li+  Li8  1  0.25000000  0.82640000  0.58680000  1.0
  Li+  Li9  1  0.75000000  0.82640000  0.58680000  1.0
  Li+  Li10  1  0.25000000  0.32640000  0.58680000  1.0
  Li+  Li11  1  0.75000000  0.32640000  0.58680000  1.0
  Li+  Li12  1  0.24647006  0.82767743  0.08087736  1.0
  Li+  Li13  1  0.75000000  0.82640000  0.08680000  1.0
  Li+  Li14  1  0.25000000  0.32640000  0.08680000  1.0
  Li+  Li15  1  0.74577209  0.32610243  0.08909557  1.0
  Li+  Li16  1  0.25084311  0.67466298  0.41263567  1.0
  Li+  Li17  1  0.74964742  0.67535276  0.40880155  1.0
  Li+  Li18  1  0.25000000  0.17360000  0.41320000  1.0
  Li+  Li19  1  0.75000000  0.17360000  0.41320000  1.0
  Li+  Li20  1  0.25000000  0.67360000  0.91320000  1.0
  Li+  Li21  1  0.75000000  0.67360000  0.91320000  1.0
  Li+  Li22  1  0.25000000  0.17360000  0.91320000  1.0
  Li+  Li23  1  0.75000000  0.17360000  0.91320000  1.0
  Li+  Li24  1  0.00000000  0.67360000  0.41320000  1.0
  Li+  Li25  1  0.50000000  0.67360000  0.41320000  1.0
  Li+  Li26  1  0.00000000  0.17360000  0.41320000  1.0
  Li+  Li27  1  0.49815400  0.17386970  0.41497077  1.0
  Li+  Li28  1  0.00000000  0.67360000  0.91320000  1.0
  Li+  Li29  1  0.49613187  0.67529243  0.91363301  1.0
  Li+  Li30  1  0.99723944  0.17099906  0.91169249  1.0
  Li+  Li31  1  0.50000000  0.17360000  0.91320000  1.0
  Li+  Li32  1  0.12500000  0.50000000  0.00000000  1.0
  Li+  Li33  1  0.62500000  0.50000000  0.00000000  1.0
  Li+  Li34  1  0.37737906  0.49915443  0.49991224  1.0
  Li+  Li35  1  0.87500000  0.50000000  0.50000000  1.0
  Li+  Li36  1  0.12500000  0.17149000  0.66425500  1.0
  Li+  Li37  1  0.62500000  0.17149000  0.66425500  1.0
  Li+  Li38  1  0.12500000  0.17149000  0.16425500  1.0
  Li+  Li39  1  0.62500000  0.17149000  0.16425500  1.0
  Li+  Li40  1  0.37500000  0.17149000  0.16425500  1.0
  Li+  Li41  1  0.87500000  0.17149000  0.16425500  1.0
  Li+  Li42  1  0.12500000  0.82851000  0.33574500  1.0
  Li+  Li43  1  0.62179390  0.82552313  0.33617100  1.0
  Li+  Li44  1  0.37500000  0.32851000  0.33574500  1.0
  Li+  Li45  1  0.87500000  0.32851000  0.33574500  1.0
  Li+  Li46  1  0.37525373  0.83000639  0.83244998  1.0
  Li+  Li47  1  0.87500000  0.82851000  0.83574500  1.0
  Sc3+  Sc48  1  0.00000000  0.00000000  0.75000000  1.0
  Sc3+  Sc49  1  0.50000000  0.00000000  0.75000000  1.0
  Sc3+  Sc50  1  0.00047968  0.50366443  0.75186892  1.0
  Sc3+  Sc51  1  0.50000000  0.50000000  0.75000000  1.0
  Sc3+  Sc52  1  0.00000000  0.00000000  0.25000000  1.0
  Sc3+  Sc53  1  0.50048943  0.00059691  0.25569258  1.0
  Sc3+  Sc54  1  0.00325723  0.50012252  0.25002797  1.0
  Sc3+  Sc55  1  0.50000000  0.50000000  0.25000000  1.0
  Sc3+  Sc56  1  0.25000000  0.00000000  0.75000000  1.0
  Sc3+  Sc57  1  0.75603908  0.99905250  0.74859263  1.0
  Sc3+  Sc58  1  0.25000000  0.50000000  0.75000000  1.0
  Sc3+  Sc59  1  0.75000000  0.50000000  0.75000000  1.0
  Sc3+  Sc60  1  0.24916475  0.00294104  0.25091266  1.0
  Sc3+  Sc61  1  0.75000000  0.00000000  0.25000000  1.0
  Sc3+  Sc62  1  0.25000000  0.50000000  0.25000000  1.0
  Sc3+  Sc63  1  0.75000000  0.50000000  0.25000000  1.0
  Cl-  Cl64  1  0.05913250  0.83910000  0.45008000  1.0
  Cl-  Cl65  1  0.55913250  0.83910000  0.45008000  1.0
  Cl-  Cl66  1  0.05913250  0.33910000  0.45008000  1.0
  Cl-  Cl67  1  0.55913250  0.33910000  0.45008000  1.0
  Cl-  Cl68  1  0.05956279  0.84046547  0.94515755  1.0
  Cl-  Cl69  1  0.55913250  0.83910000  0.95008000  1.0
  Cl-  Cl70  1  0.06041914  0.33602729  0.95257066  1.0
  Cl-  Cl71  1  0.55913250  0.33910000  0.95008000  1.0
  Cl-  Cl72  1  0.31479128  0.83982177  0.45090854  1.0
  Cl-  Cl73  1  0.80913250  0.83910000  0.45008000  1.0
  Cl-  Cl74  1  0.30913250  0.33910000  0.45008000  1.0
  Cl-  Cl75  1  0.80913250  0.33910000  0.45008000  1.0
  Cl-  Cl76  1  0.30913250  0.83910000  0.95008000  1.0
  Cl-  Cl77  1  0.80913250  0.83910000  0.95008000  1.0
  Cl-  Cl78  1  0.30955659  0.33406698  0.94916745  1.0
  Cl-  Cl79  1  0.80913250  0.33910000  0.95008000  1.0
  Cl-  Cl80  1  0.05913250  0.66090000  0.28918000  1.0
  Cl-  Cl81  1  0.56268414  0.66392922  0.28813096  1.0
  Cl-  Cl82  1  0.05913250  0.16090000  0.28918000  1.0
  Cl-  Cl83  1  0.55913250  0.16090000  0.28918000  1.0
  Cl-  Cl84  1  0.05879276  0.66325062  0.78617548  1.0
  Cl-  Cl85  1  0.55913250  0.66090000  0.78918000  1.0
  Cl-  Cl86  1  0.05913250  0.16090000  0.78918000  1.0
  Cl-  Cl87  1  0.55913250  0.16090000  0.78918000  1.0
  Cl-  Cl88  1  0.30913250  0.66090000  0.28918000  1.0
  Cl-  Cl89  1  0.80913250  0.66090000  0.28918000  1.0
  Cl-  Cl90  1  0.30733585  0.16048012  0.28851780  1.0
  Cl-  Cl91  1  0.80659607  0.16117939  0.28653473  1.0
  Cl-  Cl92  1  0.30913250  0.66090000  0.78918000  1.0
  Cl-  Cl93  1  0.80711129  0.66431368  0.78878601  1.0
  Cl-  Cl94  1  0.30913250  0.16090000  0.78918000  1.0
  Cl-  Cl95  1  0.80913250  0.16090000  0.78918000  1.0
  Cl-  Cl96  1  0.19086750  0.66090000  0.54992000  1.0
  Cl-  Cl97  1  0.69086750  0.66090000  0.54992000  1.0
  Cl-  Cl98  1  0.19247690  0.16185573  0.54940231  1.0
  Cl-  Cl99  1  0.69086750  0.16090000  0.54992000  1.0
  Cl-  Cl100  1  0.19086750  0.66090000  0.04992000  1.0
  Cl-  Cl101  1  0.69086750  0.66090000  0.04992000  1.0
  Cl-  Cl102  1  0.19126757  0.15730065  0.04292122  1.0
  Cl-  Cl103  1  0.69086750  0.16090000  0.04992000  1.0
  Cl-  Cl104  1  0.44086750  0.66090000  0.54992000  1.0
  Cl-  Cl105  1  0.94086750  0.66090000  0.54992000  1.0
  Cl-  Cl106  1  0.44086750  0.16090000  0.54992000  1.0
  Cl-  Cl107  1  0.93950192  0.16377932  0.55140083  1.0
  Cl-  Cl108  1  0.44086750  0.66090000  0.04992000  1.0
  Cl-  Cl109  1  0.94086750  0.66090000  0.04992000  1.0
  Cl-  Cl110  1  0.44086750  0.16090000  0.04992000  1.0
  Cl-  Cl111  1  0.94086750  0.16090000  0.04992000  1.0
  Cl-  Cl112  1  0.19042601  0.83786873  0.71261060  1.0
  Cl-  Cl113  1  0.69086750  0.83910000  0.71082000  1.0
  Cl-  Cl114  1  0.19086750  0.33910000  0.71082000  1.0
  Cl-  Cl115  1  0.69086750  0.33910000  0.71082000  1.0
  Cl-  Cl116  1  0.19128561  0.83989230  0.20964208  1.0
  Cl-  Cl117  1  0.69086750  0.83910000  0.21082000  1.0
  Cl-  Cl118  1  0.19086750  0.33910000  0.21082000  1.0
  Cl-  Cl119  1  0.69086750  0.33910000  0.21082000  1.0
  Cl-  Cl120  1  0.44086750  0.83910000  0.71082000  1.0
  Cl-  Cl121  1  0.93871820  0.84056635  0.71283218  1.0
  Cl-  Cl122  1  0.44539800  0.34033719  0.71110238  1.0
  Cl-  Cl123  1  0.94330836  0.34081168  0.71012544  1.0
  Cl-  Cl124  1  0.44086750  0.83910000  0.21082000  1.0
  Cl-  Cl125  1  0.94086750  0.83910000  0.21082000  1.0
  Cl-  Cl126  1  0.44086750  0.33910000  0.21082000  1.0
  Cl-  Cl127  1  0.94086750  0.33910000  0.21082000  1.0
  Cl-  Cl128  1  0.05811000  0.00000000  0.62950500  1.0
  Cl-  Cl129  1  0.55811000  0.00000000  0.62950500  1.0
  Cl-  Cl130  1  0.05833191  0.49680008  0.62249560  1.0
  Cl-  Cl131  1  0.55811000  0.50000000  0.62950500  1.0
  Cl-  Cl132  1  0.05811000  0.00000000  0.12950500  1.0
  Cl-  Cl133  1  0.55811000  0.00000000  0.12950500  1.0
  Cl-  Cl134  1  0.05811000  0.50000000  0.12950500  1.0
  Cl-  Cl135  1  0.55811000  0.50000000  0.12950500  1.0
  Cl-  Cl136  1  0.30811000  0.00000000  0.62950500  1.0
  Cl-  Cl137  1  0.80811000  0.00000000  0.62950500  1.0
  Cl-  Cl138  1  0.30811000  0.50000000  0.62950500  1.0
  Cl-  Cl139  1  0.80811000  0.50000000  0.62950500  1.0
  Cl-  Cl140  1  0.30827947  0.00246146  0.12612740  1.0
  Cl-  Cl141  1  0.80811000  0.00000000  0.12950500  1.0
  Cl-  Cl142  1  0.30811000  0.50000000  0.12950500  1.0
  Cl-  Cl143  1  0.80811000  0.50000000  0.12950500  1.0
  Cl-  Cl144  1  0.19189000  0.00000000  0.37049500  1.0
  Cl-  Cl145  1  0.69289292  0.99901431  0.37201354  1.0
  Cl-  Cl146  1  0.19189000  0.50000000  0.37049500  1.0
  Cl-  Cl147  1  0.69189000  0.50000000  0.37049500  1.0
  Cl-  Cl148  1  0.19189000  0.00000000  0.87049500  1.0
  Cl-  Cl149  1  0.69189000  0.00000000  0.87049500  1.0
  Cl-  Cl150  1  0.19175279  0.50036724  0.87131140  1.0
  Cl-  Cl151  1  0.69189000  0.50000000  0.87049500  1.0
  Cl-  Cl152  1  0.44189000  0.00000000  0.37049500  1.0
  Cl-  Cl153  1  0.94416549  0.99599245  0.37291943  1.0
  Cl-  Cl154  1  0.44189000  0.50000000  0.37049500  1.0
  Cl-  Cl155  1  0.94320932  0.50340932  0.37185155  1.0
  Cl-  Cl156  1  0.44107176  0.00161467  0.87201437  1.0
  Cl-  Cl157  1  0.94189000  0.00000000  0.87049500  1.0
  Cl-  Cl158  1  0.44189000  0.50000000  0.87049500  1.0
  Cl-  Cl159  1  0.94189000  0.50000000  0.87049500  1.0
