# generated using pymatgen
data_Li3ScCl6
_symmetry_space_group_name_H-M   'P 1'
_cell_length_a   12.73412062
_cell_length_b   25.42138413
_cell_length_c   12.76723084
_cell_angle_alpha   99.55311156
_cell_angle_beta   119.91424886
_cell_angle_gamma   70.56200000
_symmetry_Int_Tables_number   1
_chemical_formula_structural   Li3ScCl6
_chemical_formula_sum   'Li48 Sc16 Cl96'
_cell_volume   3378.18009351
_cell_formula_units_Z   16
loop_
 _symmetry_equiv_pos_site_id
 _symmetry_equiv_pos_as_xyz
  1  'x, y, z'
loop_
 _atom_type_symbol
 _atom_type_oxidation_number
  Li+  1.0
  Sc3+  3.0
  Cl-  -1.0
loop_
 _atom_site_type_symbol
 _atom_site_label
 _atom_site_symmetry_multiplicity
 _atom_site_fract_x
 _atom_site_fract_y
 _atom_site_fract_z
 _atom_site_occupancy
  Li+  Li0  1  0.83680000  0.66666667  0.17360000  1.0
  Li+  Li1  1  0.83680000  0.16666667  0.17360000  1.0
  Li+  Li2  1  0.83680000  0.66666667  0.67360000  1.0
  Li+  Li3  1  0.83680000  0.16666667  0.67360000  1.0
  Li+  Li4  1  0.33680000  0.66666667  0.17360000  1.0
  Li+  Li5  1  0.33680000  0.16666667  0.17360000  1.0
  Li+  Li6  1  0.33680000  0.66666667  0.67360000  1.0
  Li+  Li7  1  0.33680000  0.16666667  0.67360000  1.0
  Li+  Li8  1  0.83680000  0.41666667  0.17360000  1.0
  Li+  Li9  1  0.83680000  0.91666667  0.17360000  1.0
  Li+  Li10  1  0.83680000  0.41666667  0.67360000  1.0
  Li+  Li11  1  0.83680000  0.91666667  0.67360000  1.0
  Li+  Li12  1  0.33680000  0.41666667  0.17360000  1.0
  Li+  Li13  1  0.33680000  0.91666667  0.17360000  1.0
  Li+  Li14  1  0.33680000  0.41666667  0.67360000  1.0
  Li+  Li15  1  0.33680000  0.91666667  0.67360000  1.0
  Li+  Li16  1  0.66320000  0.41666667  0.32640000  1.0
  Li+  Li17  1  0.66320000  0.91666667  0.32640000  1.0
  Li+  Li18  1  0.66320000  0.41666667  0.82640000  1.0
  Li+  Li19  1  0.66320000  0.91666667  0.82640000  1.0
  Li+  Li20  1  0.16320000  0.41666667  0.32640000  1.0
  Li+  Li21  1  0.16320000  0.91666667  0.32640000  1.0
  Li+  Li22  1  0.16320000  0.41666667  0.82640000  1.0
  Li+  Li23  1  0.16320000  0.91666667  0.82640000  1.0
  Li+  Li24  1  0.66320000  0.66666667  0.32640000  1.0
  Li+  Li25  1  0.66320000  0.16666667  0.32640000  1.0
  Li+  Li26  1  0.66320000  0.66666667  0.82640000  1.0
  Li+  Li27  1  0.66320000  0.16666667  0.82640000  1.0
  Li+  Li28  1  0.16320000  0.66666667  0.32640000  1.0
  Li+  Li29  1  0.16320000  0.16666667  0.32640000  1.0
  Li+  Li30  1  0.16320000  0.66666667  0.82640000  1.0
  Li+  Li31  1  0.16320000  0.16666667  0.82640000  1.0
  Li+  Li32  1  0.25000000  0.54166667  0.50000000  1.0
  Li+  Li33  1  0.25000000  0.04166667  0.50000000  1.0
  Li+  Li34  1  0.75000000  0.29166667  0.50000000  1.0
  Li+  Li35  1  0.75000000  0.79166667  0.50000000  1.0
  Li+  Li36  1  0.91425500  0.54166667  0.82851000  1.0
  Li+  Li37  1  0.91425500  0.04166667  0.82851000  1.0
  Li+  Li38  1  0.41425500  0.54166667  0.82851000  1.0
  Li+  Li39  1  0.41425500  0.04166667  0.82851000  1.0
  Li+  Li40  1  0.41425500  0.29166667  0.82851000  1.0
  Li+  Li41  1  0.41425500  0.79166667  0.82851000  1.0
  Li+  Li42  1  0.58574500  0.54166667  0.17149000  1.0
  Li+  Li43  1  0.58574500  0.04166667  0.17149000  1.0
  Li+  Li44  1  0.58574500  0.29166667  0.67149000  1.0
  Li+  Li45  1  0.58574500  0.79166667  0.67149000  1.0
  Li+  Li46  1  0.08574500  0.29166667  0.17149000  1.0
  Li+  Li47  1  0.08574500  0.79166667  0.17149000  1.0
  Sc3+  Sc48  1  0.00000000  0.66666667  0.00000000  1.0
  Sc3+  Sc49  1  0.00000000  0.16666667  0.00000000  1.0
  Sc3+  Sc50  1  0.00000000  0.66666667  0.50000000  1.0
  Sc3+  Sc51  1  0.00000000  0.16666667  0.50000000  1.0
  Sc3+  Sc52  1  0.50000000  0.66666667  0.00000000  1.0
  Sc3+  Sc53  1  0.50000000  0.16666667  0.00000000  1.0
  Sc3+  Sc54  1  0.50000000  0.66666667  0.50000000  1.0
  Sc3+  Sc55  1  0.50000000  0.16666667  0.50000000  1.0
  Sc3+  Sc56  1  0.00000000  0.41666667  0.00000000  1.0
  Sc3+  Sc57  1  0.00000000  0.91666667  0.00000000  1.0
  Sc3+  Sc58  1  0.00000000  0.41666667  0.50000000  1.0
  Sc3+  Sc59  1  0.00000000  0.91666667  0.50000000  1.0
  Sc3+  Sc60  1  0.50000000  0.41666667  0.00000000  1.0
  Sc3+  Sc61  1  0.50000000  0.91666667  0.00000000  1.0
  Sc3+  Sc62  1  0.50000000  0.41666667  0.50000000  1.0
  Sc3+  Sc63  1  0.50000000  0.91666667  0.50000000  1.0
  Cl-  Cl64  1  0.70008000  0.60753417  0.16090000  1.0
  Cl-  Cl65  1  0.70008000  0.10753417  0.16090000  1.0
  Cl-  Cl66  1  0.70008000  0.60753417  0.66090000  1.0
  Cl-  Cl67  1  0.70008000  0.10753417  0.66090000  1.0
  Cl-  Cl68  1  0.20008000  0.60753417  0.16090000  1.0
  Cl-  Cl69  1  0.20008000  0.10753417  0.16090000  1.0
  Cl-  Cl70  1  0.20008000  0.60753417  0.66090000  1.0
  Cl-  Cl71  1  0.20008000  0.10753417  0.66090000  1.0
  Cl-  Cl72  1  0.70008000  0.35753417  0.16090000  1.0
  Cl-  Cl73  1  0.70008000  0.85753417  0.16090000  1.0
  Cl-  Cl74  1  0.70008000  0.35753417  0.66090000  1.0
  Cl-  Cl75  1  0.70008000  0.85753417  0.66090000  1.0
  Cl-  Cl76  1  0.20008000  0.35753417  0.16090000  1.0
  Cl-  Cl77  1  0.20008000  0.85753417  0.16090000  1.0
  Cl-  Cl78  1  0.20008000  0.35753417  0.66090000  1.0
  Cl-  Cl79  1  0.20008000  0.85753417  0.66090000  1.0
  Cl-  Cl80  1  0.53918000  0.60753417  0.33910000  1.0
  Cl-  Cl81  1  0.53918000  0.10753417  0.33910000  1.0
  Cl-  Cl82  1  0.53918000  0.60753417  0.83910000  1.0
  Cl-  Cl83  1  0.53918000  0.10753417  0.83910000  1.0
  Cl-  Cl84  1  0.03918000  0.60753417  0.33910000  1.0
  Cl-  Cl85  1  0.03918000  0.10753417  0.33910000  1.0
  Cl-  Cl86  1  0.03918000  0.60753417  0.83910000  1.0
  Cl-  Cl87  1  0.03918000  0.10753417  0.83910000  1.0
  Cl-  Cl88  1  0.53918000  0.35753417  0.33910000  1.0
  Cl-  Cl89  1  0.53918000  0.85753417  0.33910000  1.0
  Cl-  Cl90  1  0.53918000  0.35753417  0.83910000  1.0
  Cl-  Cl91  1  0.53918000  0.85753417  0.83910000  1.0
  Cl-  Cl92  1  0.03918000  0.35753417  0.33910000  1.0
  Cl-  Cl93  1  0.03918000  0.85753417  0.33910000  1.0
  Cl-  Cl94  1  0.03918000  0.35753417  0.83910000  1.0
  Cl-  Cl95  1  0.03918000  0.85753417  0.83910000  1.0
  Cl-  Cl96  1  0.79992000  0.47579917  0.33910000  1.0
  Cl-  Cl97  1  0.79992000  0.97579917  0.33910000  1.0
  Cl-  Cl98  1  0.79992000  0.47579917  0.83910000  1.0
  Cl-  Cl99  1  0.79992000  0.97579917  0.83910000  1.0
  Cl-  Cl100  1  0.29992000  0.47579917  0.33910000  1.0
  Cl-  Cl101  1  0.29992000  0.97579917  0.33910000  1.0
  Cl-  Cl102  1  0.29992000  0.47579917  0.83910000  1.0
  Cl-  Cl103  1  0.29992000  0.97579917  0.83910000  1.0
  Cl-  Cl104  1  0.79992000  0.22579917  0.33910000  1.0
  Cl-  Cl105  1  0.79992000  0.72579917  0.33910000  1.0
  Cl-  Cl106  1  0.79992000  0.22579917  0.83910000  1.0
  Cl-  Cl107  1  0.79992000  0.72579917  0.83910000  1.0
  Cl-  Cl108  1  0.29992000  0.22579917  0.33910000  1.0
  Cl-  Cl109  1  0.29992000  0.72579917  0.33910000  1.0
  Cl-  Cl110  1  0.29992000  0.22579917  0.83910000  1.0
  Cl-  Cl111  1  0.29992000  0.72579917  0.83910000  1.0
  Cl-  Cl112  1  0.96082000  0.47579917  0.16090000  1.0
  Cl-  Cl113  1  0.96082000  0.97579917  0.16090000  1.0
  Cl-  Cl114  1  0.96082000  0.47579917  0.66090000  1.0
  Cl-  Cl115  1  0.96082000  0.97579917  0.66090000  1.0
  Cl-  Cl116  1  0.46082000  0.47579917  0.16090000  1.0
  Cl-  Cl117  1  0.46082000  0.97579917  0.16090000  1.0
  Cl-  Cl118  1  0.46082000  0.47579917  0.66090000  1.0
  Cl-  Cl119  1  0.46082000  0.97579917  0.66090000  1.0
  Cl-  Cl120  1  0.96082000  0.22579917  0.16090000  1.0
  Cl-  Cl121  1  0.96082000  0.72579917  0.16090000  1.0
  Cl-  Cl122  1  0.96082000  0.22579917  0.66090000  1.0
  Cl-  Cl123  1  0.96082000  0.72579917  0.66090000  1.0
  Cl-  Cl124  1  0.46082000  0.22579917  0.16090000  1.0
  Cl-  Cl125  1  0.46082000  0.72579917  0.16090000  1.0
  Cl-  Cl126  1  0.46082000  0.22579917  0.66090000  1.0
  Cl-  Cl127  1  0.46082000  0.72579917  0.66090000  1.0
  Cl-  Cl128  1  0.87950500  0.60855667  0.00000000  1.0
  Cl-  Cl129  1  0.87950500  0.10855667  0.00000000  1.0
  Cl-  Cl130  1  0.87950500  0.60855667  0.50000000  1.0
  Cl-  Cl131  1  0.87950500  0.10855667  0.50000000  1.0
  Cl-  Cl132  1  0.37950500  0.60855667  0.00000000  1.0
  Cl-  Cl133  1  0.37950500  0.10855667  0.00000000  1.0
  Cl-  Cl134  1  0.37950500  0.60855667  0.50000000  1.0
  Cl-  Cl135  1  0.37950500  0.10855667  0.50000000  1.0
  Cl-  Cl136  1  0.87950500  0.35855667  0.00000000  1.0
  Cl-  Cl137  1  0.87950500  0.85855667  0.00000000  1.0
  Cl-  Cl138  1  0.87950500  0.35855667  0.50000000  1.0
  Cl-  Cl139  1  0.87950500  0.85855667  0.50000000  1.0
  Cl-  Cl140  1  0.37950500  0.35855667  0.00000000  1.0
  Cl-  Cl141  1  0.37950500  0.85855667  0.00000000  1.0
  Cl-  Cl142  1  0.37950500  0.35855667  0.50000000  1.0
  Cl-  Cl143  1  0.37950500  0.85855667  0.50000000  1.0
  Cl-  Cl144  1  0.62049500  0.47477667  0.00000000  1.0
  Cl-  Cl145  1  0.62049500  0.97477667  0.00000000  1.0
  Cl-  Cl146  1  0.62049500  0.47477667  0.50000000  1.0
  Cl-  Cl147  1  0.62049500  0.97477667  0.50000000  1.0
  Cl-  Cl148  1  0.12049500  0.47477667  0.00000000  1.0
  Cl-  Cl149  1  0.12049500  0.97477667  0.00000000  1.0
  Cl-  Cl150  1  0.12049500  0.47477667  0.50000000  1.0
  Cl-  Cl151  1  0.12049500  0.97477667  0.50000000  1.0
  Cl-  Cl152  1  0.62049500  0.22477667  0.00000000  1.0
  Cl-  Cl153  1  0.62049500  0.72477667  0.00000000  1.0
  Cl-  Cl154  1  0.62049500  0.22477667  0.50000000  1.0
  Cl-  Cl155  1  0.62049500  0.72477667  0.50000000  1.0
  Cl-  Cl156  1  0.12049500  0.22477667  0.00000000  1.0
  Cl-  Cl157  1  0.12049500  0.72477667  0.00000000  1.0
  Cl-  Cl158  1  0.12049500  0.22477667  0.50000000  1.0
  Cl-  Cl159  1  0.12049500  0.72477667  0.50000000  1.0
