# generated using pymatgen
data_Li3ScCl6
_symmetry_space_group_name_H-M   'P 1'
_cell_length_a   25.39040000
_cell_length_b   12.71860000
_cell_length_c   12.75166986
_cell_angle_alpha   60.08575114
_cell_angle_beta   80.44688844
_cell_angle_gamma   70.56200000
_symmetry_Int_Tables_number   1
_chemical_formula_structural   Li3ScCl6
_chemical_formula_sum   'Li48 Sc16 Cl96'
_cell_volume   3365.84294566
_cell_formula_units_Z   16
loop_
 _symmetry_equiv_pos_site_id
 _symmetry_equiv_pos_as_xyz
  1  'x, y, z'
loop_
 _atom_type_symbol
 _atom_type_oxidation_number
  Li+  1.0
  Sc3+  3.0
  Cl-  -1.0
loop_
 _atom_site_type_symbol
 _atom_site_label
 _atom_site_symmetry_multiplicity
 _atom_site_fract_x
 _atom_site_fract_y
 _atom_site_fract_z
 _atom_site_occupancy
  Li+  Li3  1  0.00000000  0.16320000  0.17360000  1.0
  Li+  Li3  1  0.50000000  0.16320000  0.17360000  1.0
  Li+  Li3  1  0.00000000  0.16320000  0.67360000  1.0
  Li+  Li3  1  0.50000000  0.16320000  0.67360000  1.0
  Li+  Li3  1  0.00000000  0.66320000  0.17360000  1.0
  Li+  Li3  1  0.50000000  0.66320000  0.17360000  1.0
  Li+  Li3  1  0.00000000  0.66320000  0.67360000  1.0
  Li+  Li3  1  0.50000000  0.66320000  0.67360000  1.0
  Li+  Li3  1  0.25000000  0.16320000  0.17360000  1.0
  Li+  Li3  1  0.75000000  0.16320000  0.17360000  1.0
  Li+  Li3  1  0.25000000  0.16320000  0.67360000  1.0
  Li+  Li3  1  0.75000000  0.16320000  0.67360000  1.0
  Li+  Li3  1  0.25000000  0.66320000  0.17360000  1.0
  Li+  Li3  1  0.75000000  0.66320000  0.17360000  1.0
  Li+  Li3  1  0.25000000  0.66320000  0.67360000  1.0
  Li+  Li3  1  0.75000000  0.66320000  0.67360000  1.0
  Li+  Li3  1  0.25000000  0.33680000  0.32640000  1.0
  Li+  Li3  1  0.75000000  0.33680000  0.32640000  1.0
  Li+  Li3  1  0.25000000  0.33680000  0.82640000  1.0
  Li+  Li3  1  0.75000000  0.33680000  0.82640000  1.0
  Li+  Li3  1  0.25000000  0.83680000  0.32640000  1.0
  Li+  Li3  1  0.75000000  0.83680000  0.32640000  1.0
  Li+  Li3  1  0.25000000  0.83680000  0.82640000  1.0
  Li+  Li3  1  0.75000000  0.83680000  0.82640000  1.0
  Li+  Li3  1  0.00000000  0.33680000  0.32640000  1.0
  Li+  Li3  1  0.50000000  0.33680000  0.32640000  1.0
  Li+  Li3  1  0.00000000  0.33680000  0.82640000  1.0
  Li+  Li3  1  0.50000000  0.33680000  0.82640000  1.0
  Li+  Li3  1  0.00000000  0.83680000  0.32640000  1.0
  Li+  Li3  1  0.50000000  0.83680000  0.32640000  1.0
  Li+  Li3  1  0.00000000  0.83680000  0.82640000  1.0
  Li+  Li3  1  0.50000000  0.83680000  0.82640000  1.0
  Li+  Li16  1  0.12500000  0.75000000  0.50000000  1.0
  Li+  Li16  1  0.62500000  0.75000000  0.50000000  1.0
  Li+  Li17  1  0.37500000  0.25000000  0.50000000  1.0
  Li+  Li17  1  0.87500000  0.25000000  0.50000000  1.0
  Li+  Li18  1  0.12500000  0.08574500  0.82851000  1.0
  Li+  Li18  1  0.62500000  0.08574500  0.82851000  1.0
  Li+  Li19  1  0.12500000  0.58574500  0.82851000  1.0
  Li+  Li19  1  0.62500000  0.58574500  0.82851000  1.0
  Li+  Li20  1  0.37500000  0.58574500  0.82851000  1.0
  Li+  Li20  1  0.87500000  0.58574500  0.82851000  1.0
  Li+  Li21  1  0.12500000  0.41425500  0.17149000  1.0
  Li+  Li21  1  0.62500000  0.41425500  0.17149000  1.0
  Li+  Li22  1  0.37500000  0.41425500  0.67149000  1.0
  Li+  Li22  1  0.87500000  0.41425500  0.67149000  1.0
  Li+  Li23  1  0.37500000  0.91425500  0.17149000  1.0
  Li+  Li23  1  0.87500000  0.91425500  0.17149000  1.0
  Sc3+  Sc1  1  0.00000000  0.00000000  0.00000000  1.0
  Sc3+  Sc1  1  0.50000000  0.00000000  0.00000000  1.0
  Sc3+  Sc1  1  0.00000000  0.00000000  0.50000000  1.0
  Sc3+  Sc1  1  0.50000000  0.00000000  0.50000000  1.0
  Sc3+  Sc1  1  0.00000000  0.50000000  0.00000000  1.0
  Sc3+  Sc1  1  0.50000000  0.50000000  0.00000000  1.0
  Sc3+  Sc1  1  0.00000000  0.50000000  0.50000000  1.0
  Sc3+  Sc1  1  0.50000000  0.50000000  0.50000000  1.0
  Sc3+  Sc1  1  0.25000000  0.00000000  0.00000000  1.0
  Sc3+  Sc1  1  0.75000000  0.00000000  0.00000000  1.0
  Sc3+  Sc1  1  0.25000000  0.00000000  0.50000000  1.0
  Sc3+  Sc1  1  0.75000000  0.00000000  0.50000000  1.0
  Sc3+  Sc1  1  0.25000000  0.50000000  0.00000000  1.0
  Sc3+  Sc1  1  0.75000000  0.50000000  0.00000000  1.0
  Sc3+  Sc1  1  0.25000000  0.50000000  0.50000000  1.0
  Sc3+  Sc1  1  0.75000000  0.50000000  0.50000000  1.0
  Cl-  Cl1  1  0.05913250  0.29992000  0.16090000  1.0
  Cl-  Cl1  1  0.55913250  0.29992000  0.16090000  1.0
  Cl-  Cl1  1  0.05913250  0.29992000  0.66090000  1.0
  Cl-  Cl1  1  0.55913250  0.29992000  0.66090000  1.0
  Cl-  Cl1  1  0.05913250  0.79992000  0.16090000  1.0
  Cl-  Cl1  1  0.55913250  0.79992000  0.16090000  1.0
  Cl-  Cl1  1  0.05913250  0.79992000  0.66090000  1.0
  Cl-  Cl1  1  0.55913250  0.79992000  0.66090000  1.0
  Cl-  Cl1  1  0.30913250  0.29992000  0.16090000  1.0
  Cl-  Cl1  1  0.80913250  0.29992000  0.16090000  1.0
  Cl-  Cl1  1  0.30913250  0.29992000  0.66090000  1.0
  Cl-  Cl1  1  0.80913250  0.29992000  0.66090000  1.0
  Cl-  Cl1  1  0.30913250  0.79992000  0.16090000  1.0
  Cl-  Cl1  1  0.80913250  0.79992000  0.16090000  1.0
  Cl-  Cl1  1  0.30913250  0.79992000  0.66090000  1.0
  Cl-  Cl1  1  0.80913250  0.79992000  0.66090000  1.0
  Cl-  Cl1  1  0.05913250  0.46082000  0.33910000  1.0
  Cl-  Cl1  1  0.55913250  0.46082000  0.33910000  1.0
  Cl-  Cl1  1  0.05913250  0.46082000  0.83910000  1.0
  Cl-  Cl1  1  0.55913250  0.46082000  0.83910000  1.0
  Cl-  Cl1  1  0.05913250  0.96082000  0.33910000  1.0
  Cl-  Cl1  1  0.55913250  0.96082000  0.33910000  1.0
  Cl-  Cl1  1  0.05913250  0.96082000  0.83910000  1.0
  Cl-  Cl1  1  0.55913250  0.96082000  0.83910000  1.0
  Cl-  Cl1  1  0.30913250  0.46082000  0.33910000  1.0
  Cl-  Cl1  1  0.80913250  0.46082000  0.33910000  1.0
  Cl-  Cl1  1  0.30913250  0.46082000  0.83910000  1.0
  Cl-  Cl1  1  0.80913250  0.46082000  0.83910000  1.0
  Cl-  Cl1  1  0.30913250  0.96082000  0.33910000  1.0
  Cl-  Cl1  1  0.80913250  0.96082000  0.33910000  1.0
  Cl-  Cl1  1  0.30913250  0.96082000  0.83910000  1.0
  Cl-  Cl1  1  0.80913250  0.96082000  0.83910000  1.0
  Cl-  Cl1  1  0.19086750  0.20008000  0.33910000  1.0
  Cl-  Cl1  1  0.69086750  0.20008000  0.33910000  1.0
  Cl-  Cl1  1  0.19086750  0.20008000  0.83910000  1.0
  Cl-  Cl1  1  0.69086750  0.20008000  0.83910000  1.0
  Cl-  Cl1  1  0.19086750  0.70008000  0.33910000  1.0
  Cl-  Cl1  1  0.69086750  0.70008000  0.33910000  1.0
  Cl-  Cl1  1  0.19086750  0.70008000  0.83910000  1.0
  Cl-  Cl1  1  0.69086750  0.70008000  0.83910000  1.0
  Cl-  Cl1  1  0.44086750  0.20008000  0.33910000  1.0
  Cl-  Cl1  1  0.94086750  0.20008000  0.33910000  1.0
  Cl-  Cl1  1  0.44086750  0.20008000  0.83910000  1.0
  Cl-  Cl1  1  0.94086750  0.20008000  0.83910000  1.0
  Cl-  Cl1  1  0.44086750  0.70008000  0.33910000  1.0
  Cl-  Cl1  1  0.94086750  0.70008000  0.33910000  1.0
  Cl-  Cl1  1  0.44086750  0.70008000  0.83910000  1.0
  Cl-  Cl1  1  0.94086750  0.70008000  0.83910000  1.0
  Cl-  Cl1  1  0.19086750  0.03918000  0.16090000  1.0
  Cl-  Cl1  1  0.69086750  0.03918000  0.16090000  1.0
  Cl-  Cl1  1  0.19086750  0.03918000  0.66090000  1.0
  Cl-  Cl1  1  0.69086750  0.03918000  0.66090000  1.0
  Cl-  Cl1  1  0.19086750  0.53918000  0.16090000  1.0
  Cl-  Cl1  1  0.69086750  0.53918000  0.16090000  1.0
  Cl-  Cl1  1  0.19086750  0.53918000  0.66090000  1.0
  Cl-  Cl1  1  0.69086750  0.53918000  0.66090000  1.0
  Cl-  Cl1  1  0.44086750  0.03918000  0.16090000  1.0
  Cl-  Cl1  1  0.94086750  0.03918000  0.16090000  1.0
  Cl-  Cl1  1  0.44086750  0.03918000  0.66090000  1.0
  Cl-  Cl1  1  0.94086750  0.03918000  0.66090000  1.0
  Cl-  Cl1  1  0.44086750  0.53918000  0.16090000  1.0
  Cl-  Cl1  1  0.94086750  0.53918000  0.16090000  1.0
  Cl-  Cl1  1  0.44086750  0.53918000  0.66090000  1.0
  Cl-  Cl1  1  0.94086750  0.53918000  0.66090000  1.0
  Cl-  Cl2  1  0.05811000  0.12049500  0.00000000  1.0
  Cl-  Cl2  1  0.55811000  0.12049500  0.00000000  1.0
  Cl-  Cl2  1  0.05811000  0.12049500  0.50000000  1.0
  Cl-  Cl2  1  0.55811000  0.12049500  0.50000000  1.0
  Cl-  Cl2  1  0.05811000  0.62049500  0.00000000  1.0
  Cl-  Cl2  1  0.55811000  0.62049500  0.00000000  1.0
  Cl-  Cl2  1  0.05811000  0.62049500  0.50000000  1.0
  Cl-  Cl2  1  0.55811000  0.62049500  0.50000000  1.0
  Cl-  Cl2  1  0.30811000  0.12049500  0.00000000  1.0
  Cl-  Cl2  1  0.80811000  0.12049500  0.00000000  1.0
  Cl-  Cl2  1  0.30811000  0.12049500  0.50000000  1.0
  Cl-  Cl2  1  0.80811000  0.12049500  0.50000000  1.0
  Cl-  Cl2  1  0.30811000  0.62049500  0.00000000  1.0
  Cl-  Cl2  1  0.80811000  0.62049500  0.00000000  1.0
  Cl-  Cl2  1  0.30811000  0.62049500  0.50000000  1.0
  Cl-  Cl2  1  0.80811000  0.62049500  0.50000000  1.0
  Cl-  Cl2  1  0.19189000  0.37950500  0.00000000  1.0
  Cl-  Cl2  1  0.69189000  0.37950500  0.00000000  1.0
  Cl-  Cl2  1  0.19189000  0.37950500  0.50000000  1.0
  Cl-  Cl2  1  0.69189000  0.37950500  0.50000000  1.0
  Cl-  Cl2  1  0.19189000  0.87950500  1.00000000  1.0
  Cl-  Cl2  1  0.69189000  0.87950500  0.00000000  1.0
  Cl-  Cl2  1  0.19189000  0.87950500  0.50000000  1.0
  Cl-  Cl2  1  0.69189000  0.87950500  0.50000000  1.0
  Cl-  Cl2  1  0.44189000  0.37950500  0.00000000  1.0
  Cl-  Cl2  1  0.94189000  0.37950500  1.00000000  1.0
  Cl-  Cl2  1  0.44189000  0.37950500  0.50000000  1.0
  Cl-  Cl2  1  0.94189000  0.37950500  0.50000000  1.0
  Cl-  Cl2  1  0.44189000  0.87950500  0.00000000  1.0
  Cl-  Cl2  1  0.94189000  0.87950500  0.00000000  1.0
  Cl-  Cl2  1  0.44189000  0.87950500  0.50000000  1.0
  Cl-  Cl2  1  0.94189000  0.87950500  0.50000000  1.0
