# generated using pymatgen
data_Li6ZnO4
_symmetry_space_group_name_H-M   'P 1'
_cell_length_a   9.30180000
_cell_length_b   13.05520000
_cell_length_c   13.05520000
_cell_angle_alpha   90.00000000
_cell_angle_beta   90.00000000
_cell_angle_gamma   90.00000000
_symmetry_Int_Tables_number   1
_chemical_formula_structural   Li6ZnO4
_chemical_formula_sum   'Li96 Zn16 O64'
_cell_volume   1585.38248632
_cell_formula_units_Z   16
loop_
 _symmetry_equiv_pos_site_id
 _symmetry_equiv_pos_as_xyz
  1  'x, y, z'
loop_
 _atom_type_symbol
 _atom_type_oxidation_number
  Li+  1.0
  Zn2+  2.0
  O2-  -2.0
loop_
 _atom_site_type_symbol
 _atom_site_label
 _atom_site_symmetry_multiplicity
 _atom_site_fract_x
 _atom_site_fract_y
 _atom_site_fract_z
 _atom_site_occupancy
  Li+  Li0  1  0.37500000  0.51655000  0.73345000  1.0
  Li+  Li1  1  0.37488605  0.01526245  0.73160873  1.0
  Li+  Li2  1  0.37500000  0.51655000  0.23345000  1.0
  Li+  Li3  1  0.37400573  0.01912570  0.23320478  1.0
  Li+  Li4  1  0.87422284  0.51332136  0.73634419  1.0
  Li+  Li5  1  0.87500000  0.01655000  0.73345000  1.0
  Li+  Li6  1  0.87500000  0.51655000  0.23345000  1.0
  Li+  Li7  1  0.87500000  0.01655000  0.23345000  1.0
  Li+  Li8  1  0.37500000  0.51655000  0.51655000  1.0
  Li+  Li9  1  0.37500000  0.01655000  0.51655000  1.0
  Li+  Li10  1  0.37587105  0.52044388  0.02179117  1.0
  Li+  Li11  1  0.37500000  0.01655000  0.01655000  1.0
  Li+  Li12  1  0.86989167  0.51800501  0.51804773  1.0
  Li+  Li13  1  0.87500000  0.01655000  0.51655000  1.0
  Li+  Li14  1  0.87500000  0.51655000  0.01655000  1.0
  Li+  Li15  1  0.87500000  0.01655000  0.01655000  1.0
  Li+  Li16  1  0.37500000  0.73345000  0.73345000  1.0
  Li+  Li17  1  0.37500000  0.23345000  0.73345000  1.0
  Li+  Li18  1  0.37500000  0.73345000  0.23345000  1.0
  Li+  Li19  1  0.37500000  0.23345000  0.23345000  1.0
  Li+  Li20  1  0.87357286  0.73108262  0.73596070  1.0
  Li+  Li21  1  0.87500000  0.23345000  0.73345000  1.0
  Li+  Li22  1  0.87500000  0.73345000  0.23345000  1.0
  Li+  Li23  1  0.87500000  0.23345000  0.23345000  1.0
  Li+  Li24  1  0.37500000  0.73345000  0.51655000  1.0
  Li+  Li25  1  0.37500000  0.23345000  0.51655000  1.0
  Li+  Li26  1  0.37500000  0.73345000  0.01655000  1.0
  Li+  Li27  1  0.37395130  0.23219422  0.02368931  1.0
  Li+  Li28  1  0.87500000  0.73345000  0.51655000  1.0
  Li+  Li29  1  0.87500000  0.23345000  0.51655000  1.0
  Li+  Li30  1  0.87500000  0.73345000  0.01655000  1.0
  Li+  Li31  1  0.87500000  0.23345000  0.01655000  1.0
  Li+  Li32  1  0.12500000  0.98345000  0.26655000  1.0
  Li+  Li33  1  0.12500000  0.48345000  0.26655000  1.0
  Li+  Li34  1  0.12500000  0.98345000  0.76655000  1.0
  Li+  Li35  1  0.13023550  0.48034550  0.76715112  1.0
  Li+  Li36  1  0.62500000  0.98345000  0.26655000  1.0
  Li+  Li37  1  0.62500000  0.48345000  0.26655000  1.0
  Li+  Li38  1  0.62500000  0.98345000  0.76655000  1.0
  Li+  Li39  1  0.62500000  0.48345000  0.76655000  1.0
  Li+  Li40  1  0.12500000  0.98345000  0.48345000  1.0
  Li+  Li41  1  0.12181956  0.48303090  0.48542870  1.0
  Li+  Li42  1  0.12500000  0.98345000  0.98345000  1.0
  Li+  Li43  1  0.12500000  0.48345000  0.98345000  1.0
  Li+  Li44  1  0.62500000  0.98345000  0.48345000  1.0
  Li+  Li45  1  0.62500000  0.48345000  0.48345000  1.0
  Li+  Li46  1  0.62155465  0.98207814  0.98490192  1.0
  Li+  Li47  1  0.62500000  0.48345000  0.98345000  1.0
  Li+  Li48  1  0.12500000  0.76655000  0.26655000  1.0
  Li+  Li49  1  0.12500000  0.26655000  0.26655000  1.0
  Li+  Li50  1  0.12500000  0.76655000  0.76655000  1.0
  Li+  Li51  1  0.12500000  0.26655000  0.76655000  1.0
  Li+  Li52  1  0.62500000  0.76655000  0.26655000  1.0
  Li+  Li53  1  0.62787055  0.26944348  0.26456535  1.0
  Li+  Li54  1  0.62380909  0.76469425  0.76958049  1.0
  Li+  Li55  1  0.62500000  0.26655000  0.76655000  1.0
  Li+  Li56  1  0.12500000  0.76655000  0.48345000  1.0
  Li+  Li57  1  0.12500000  0.26655000  0.48345000  1.0
  Li+  Li58  1  0.12500000  0.76655000  0.98345000  1.0
  Li+  Li59  1  0.12448089  0.26812756  0.98708794  1.0
  Li+  Li60  1  0.62500000  0.76655000  0.48345000  1.0
  Li+  Li61  1  0.62500000  0.26655000  0.48345000  1.0
  Li+  Li62  1  0.62539026  0.77153659  0.98436551  1.0
  Li+  Li63  1  0.62500000  0.26655000  0.98345000  1.0
  Li+  Li64  1  0.14835000  0.62500000  0.37500000  1.0
  Li+  Li65  1  0.14904982  0.12626230  0.37693308  1.0
  Li+  Li66  1  0.14835000  0.62500000  0.87500000  1.0
  Li+  Li67  1  0.15121720  0.12487962  0.87500331  1.0
  Li+  Li68  1  0.64433098  0.62596518  0.37353870  1.0
  Li+  Li69  1  0.65184581  0.11842309  0.37912922  1.0
  Li+  Li70  1  0.64835000  0.62500000  0.87500000  1.0
  Li+  Li71  1  0.65151854  0.12834434  0.87200688  1.0
  Li+  Li72  1  0.39437282  0.62370458  0.37666204  1.0
  Li+  Li73  1  0.39835000  0.12500000  0.37500000  1.0
  Li+  Li74  1  0.39835000  0.62500000  0.87500000  1.0
  Li+  Li75  1  0.39835000  0.12500000  0.87500000  1.0
  Li+  Li76  1  0.89835000  0.62500000  0.37500000  1.0
  Li+  Li77  1  0.89835000  0.12500000  0.37500000  1.0
  Li+  Li78  1  0.89835000  0.62500000  0.87500000  1.0
  Li+  Li79  1  0.89835000  0.12500000  0.87500000  1.0
  Li+  Li80  1  0.35165000  0.87500000  0.62500000  1.0
  Li+  Li81  1  0.35165000  0.37500000  0.62500000  1.0
  Li+  Li82  1  0.35165000  0.87500000  0.12500000  1.0
  Li+  Li83  1  0.35165000  0.37500000  0.12500000  1.0
  Li+  Li84  1  0.85338673  0.87218790  0.62910383  1.0
  Li+  Li85  1  0.85165000  0.37500000  0.62500000  1.0
  Li+  Li86  1  0.85165000  0.87500000  0.12500000  1.0
  Li+  Li87  1  0.85165000  0.37500000  0.12500000  1.0
  Li+  Li88  1  0.10165000  0.87500000  0.62500000  1.0
  Li+  Li89  1  0.10593218  0.37368879  0.62242173  1.0
  Li+  Li90  1  0.10165000  0.87500000  0.12500000  1.0
  Li+  Li91  1  0.10373289  0.37059650  0.12590949  1.0
  Li+  Li92  1  0.59842080  0.87569703  0.62379524  1.0
  Li+  Li93  1  0.60165000  0.37500000  0.62500000  1.0
  Li+  Li94  1  0.60165000  0.87500000  0.12500000  1.0
  Li+  Li95  1  0.60165000  0.37500000  0.12500000  1.0
  Zn2+  Zn96  1  0.37500000  0.87500000  0.37500000  1.0
  Zn2+  Zn97  1  0.37500000  0.37500000  0.37500000  1.0
  Zn2+  Zn98  1  0.37500000  0.87500000  0.87500000  1.0
  Zn2+  Zn99  1  0.37500000  0.37500000  0.87500000  1.0
  Zn2+  Zn100  1  0.87500000  0.87500000  0.37500000  1.0
  Zn2+  Zn101  1  0.87500000  0.37500000  0.37500000  1.0
  Zn2+  Zn102  1  0.87500000  0.87500000  0.87500000  1.0
  Zn2+  Zn103  1  0.87500000  0.37500000  0.87500000  1.0
  Zn2+  Zn104  1  0.12390542  0.62542603  0.62164743  1.0
  Zn2+  Zn105  1  0.12500000  0.12500000  0.62500000  1.0
  Zn2+  Zn106  1  0.12500000  0.62500000  0.12500000  1.0
  Zn2+  Zn107  1  0.12500000  0.12500000  0.12500000  1.0
  Zn2+  Zn108  1  0.62500000  0.62500000  0.62500000  1.0
  Zn2+  Zn109  1  0.62500000  0.12500000  0.62500000  1.0
  Zn2+  Zn110  1  0.62500000  0.62500000  0.12500000  1.0
  Zn2+  Zn111  1  0.62500000  0.12500000  0.12500000  1.0
  O2-  O112  1  0.01700000  0.62500000  0.25640000  1.0
  O2-  O113  1  0.01442020  0.12322027  0.25773100  1.0
  O2-  O114  1  0.01700000  0.62500000  0.75640000  1.0
  O2-  O115  1  0.01700000  0.12500000  0.75640000  1.0
  O2-  O116  1  0.51437320  0.62523212  0.25578758  1.0
  O2-  O117  1  0.51700000  0.12500000  0.25640000  1.0
  O2-  O118  1  0.51700000  0.62500000  0.75640000  1.0
  O2-  O119  1  0.51238433  0.12381162  0.75691981  1.0
  O2-  O120  1  0.01700000  0.62500000  0.49360000  1.0
  O2-  O121  1  0.01700000  0.12500000  0.49360000  1.0
  O2-  O122  1  0.01700000  0.62500000  0.99360000  1.0
  O2-  O123  1  0.01700000  0.12500000  0.99360000  1.0
  O2-  O124  1  0.51700000  0.62500000  0.49360000  1.0
  O2-  O125  1  0.52209056  0.12574563  0.49310383  1.0
  O2-  O126  1  0.51700000  0.62500000  0.99360000  1.0
  O2-  O127  1  0.51700000  0.12500000  0.99360000  1.0
  O2-  O128  1  0.26700000  0.50640000  0.37500000  1.0
  O2-  O129  1  0.26655066  0.01009583  0.37314983  1.0
  O2-  O130  1  0.26717172  0.50116964  0.87241849  1.0
  O2-  O131  1  0.26700000  0.00640000  0.87500000  1.0
  O2-  O132  1  0.76700000  0.50640000  0.37500000  1.0
  O2-  O133  1  0.76700000  0.00640000  0.37500000  1.0
  O2-  O134  1  0.76700000  0.50640000  0.87500000  1.0
  O2-  O135  1  0.76700000  0.00640000  0.87500000  1.0
  O2-  O136  1  0.26700000  0.74360000  0.37500000  1.0
  O2-  O137  1  0.26700000  0.24360000  0.37500000  1.0
  O2-  O138  1  0.26700000  0.74360000  0.87500000  1.0
  O2-  O139  1  0.26700000  0.24360000  0.87500000  1.0
  O2-  O140  1  0.76700000  0.74360000  0.37500000  1.0
  O2-  O141  1  0.76700000  0.24360000  0.37500000  1.0
  O2-  O142  1  0.76700000  0.74360000  0.87500000  1.0
  O2-  O143  1  0.76700000  0.24360000  0.87500000  1.0
  O2-  O144  1  0.48120888  0.87352995  0.74269771  1.0
  O2-  O145  1  0.48300000  0.37500000  0.74360000  1.0
  O2-  O146  1  0.48300000  0.87500000  0.24360000  1.0
  O2-  O147  1  0.48300000  0.37500000  0.24360000  1.0
  O2-  O148  1  0.98300000  0.87500000  0.74360000  1.0
  O2-  O149  1  0.98300000  0.37500000  0.74360000  1.0
  O2-  O150  1  0.98538026  0.86976542  0.24292498  1.0
  O2-  O151  1  0.98300000  0.37500000  0.24360000  1.0
  O2-  O152  1  0.48250053  0.87585223  0.50629204  1.0
  O2-  O153  1  0.47891069  0.37386427  0.50224912  1.0
  O2-  O154  1  0.48300000  0.87500000  0.00640000  1.0
  O2-  O155  1  0.48474795  0.37515717  0.00858015  1.0
  O2-  O156  1  0.98300000  0.87500000  0.50640000  1.0
  O2-  O157  1  0.98300000  0.37500000  0.50640000  1.0
  O2-  O158  1  0.97973119  0.87684937  0.00682761  1.0
  O2-  O159  1  0.98300000  0.37500000  0.00640000  1.0
  O2-  O160  1  0.23475879  0.99614073  0.62684004  1.0
  O2-  O161  1  0.23790822  0.49558042  0.62788564  1.0
  O2-  O162  1  0.23259215  0.99468332  0.12304254  1.0
  O2-  O163  1  0.23300000  0.49360000  0.12500000  1.0
  O2-  O164  1  0.73300000  0.99360000  0.62500000  1.0
  O2-  O165  1  0.73300000  0.49360000  0.62500000  1.0
  O2-  O166  1  0.73300000  0.99360000  0.12500000  1.0
  O2-  O167  1  0.73300000  0.49360000  0.12500000  1.0
  O2-  O168  1  0.23536908  0.75662415  0.62215845  1.0
  O2-  O169  1  0.23300000  0.25640000  0.62500000  1.0
  O2-  O170  1  0.23300000  0.75640000  0.12500000  1.0
  O2-  O171  1  0.23339142  0.25418030  0.12681261  1.0
  O2-  O172  1  0.73300000  0.75640000  0.62500000  1.0
  O2-  O173  1  0.73481112  0.25413668  0.62422638  1.0
  O2-  O174  1  0.73300000  0.75640000  0.12500000  1.0
  O2-  O175  1  0.73013929  0.25685740  0.12471855  1.0
