# generated using pymatgen
data_Li6ZnO4
_symmetry_space_group_name_H-M   'P 1'
_cell_length_a   9.30180000
_cell_length_b   13.05520000
_cell_length_c   13.05520000
_cell_angle_alpha   90.00000000
_cell_angle_beta   90.00000000
_cell_angle_gamma   90.00000000
_symmetry_Int_Tables_number   1
_chemical_formula_structural   Li6ZnO4
_chemical_formula_sum   'Li96 Zn16 O64'
_cell_volume   1585.38248632
_cell_formula_units_Z   16
loop_
 _symmetry_equiv_pos_site_id
 _symmetry_equiv_pos_as_xyz
  1  'x, y, z'
loop_
 _atom_type_symbol
 _atom_type_oxidation_number
  Li+  1.0
  Zn2+  2.0
  O2-  -2.0
loop_
 _atom_site_type_symbol
 _atom_site_label
 _atom_site_symmetry_multiplicity
 _atom_site_fract_x
 _atom_site_fract_y
 _atom_site_fract_z
 _atom_site_occupancy
  Li+  Li1  1  0.37500000  0.01655000  0.48345000  1.0
  Li+  Li1  1  0.37500000  0.01655000  0.98345000  1.0
  Li+  Li1  1  0.37500000  0.51655000  0.48345000  1.0
  Li+  Li1  1  0.37500000  0.51655000  0.98345000  1.0
  Li+  Li1  1  0.87500000  0.01655000  0.48345000  1.0
  Li+  Li1  1  0.87500000  0.01655000  0.98345000  1.0
  Li+  Li1  1  0.87500000  0.51655000  0.48345000  1.0
  Li+  Li1  1  0.87500000  0.51655000  0.98345000  1.0
  Li+  Li1  1  0.37500000  0.23345000  0.48345000  1.0
  Li+  Li1  1  0.37500000  0.23345000  0.98345000  1.0
  Li+  Li1  1  0.37500000  0.73345000  0.48345000  1.0
  Li+  Li1  1  0.37500000  0.73345000  0.98345000  1.0
  Li+  Li1  1  0.87500000  0.23345000  0.48345000  1.0
  Li+  Li1  1  0.87500000  0.23345000  0.98345000  1.0
  Li+  Li1  1  0.87500000  0.73345000  0.48345000  1.0
  Li+  Li1  1  0.87500000  0.73345000  0.98345000  1.0
  Li+  Li1  1  0.37500000  0.01655000  0.26655000  1.0
  Li+  Li1  1  0.37500000  0.01655000  0.76655000  1.0
  Li+  Li1  1  0.37500000  0.51655000  0.26655000  1.0
  Li+  Li1  1  0.37500000  0.51655000  0.76655000  1.0
  Li+  Li1  1  0.87500000  0.01655000  0.26655000  1.0
  Li+  Li1  1  0.87500000  0.01655000  0.76655000  1.0
  Li+  Li1  1  0.87500000  0.51655000  0.26655000  1.0
  Li+  Li1  1  0.87500000  0.51655000  0.76655000  1.0
  Li+  Li1  1  0.37500000  0.23345000  0.26655000  1.0
  Li+  Li1  1  0.37500000  0.23345000  0.76655000  1.0
  Li+  Li1  1  0.37500000  0.73345000  0.26655000  1.0
  Li+  Li1  1  0.37500000  0.73345000  0.76655000  1.0
  Li+  Li1  1  0.87500000  0.23345000  0.26655000  1.0
  Li+  Li1  1  0.87500000  0.23345000  0.76655000  1.0
  Li+  Li1  1  0.87500000  0.73345000  0.26655000  1.0
  Li+  Li1  1  0.87500000  0.73345000  0.76655000  1.0
  Li+  Li1  1  0.12500000  0.48345000  0.01655000  1.0
  Li+  Li1  1  0.12500000  0.48345000  0.51655000  1.0
  Li+  Li1  1  0.12500000  0.98345000  0.01655000  1.0
  Li+  Li1  1  0.12500000  0.98345000  0.51655000  1.0
  Li+  Li1  1  0.62500000  0.48345000  0.01655000  1.0
  Li+  Li1  1  0.62500000  0.48345000  0.51655000  1.0
  Li+  Li1  1  0.62500000  0.98345000  0.01655000  1.0
  Li+  Li1  1  0.62500000  0.98345000  0.51655000  1.0
  Li+  Li1  1  0.12500000  0.26655000  0.01655000  1.0
  Li+  Li1  1  0.12500000  0.26655000  0.51655000  1.0
  Li+  Li1  1  0.12500000  0.76655000  0.01655000  1.0
  Li+  Li1  1  0.12500000  0.76655000  0.51655000  1.0
  Li+  Li1  1  0.62500000  0.26655000  0.01655000  1.0
  Li+  Li1  1  0.62500000  0.26655000  0.51655000  1.0
  Li+  Li1  1  0.62500000  0.76655000  0.01655000  1.0
  Li+  Li1  1  0.62500000  0.76655000  0.51655000  1.0
  Li+  Li1  1  0.12500000  0.48345000  0.23345000  1.0
  Li+  Li1  1  0.12500000  0.48345000  0.73345000  1.0
  Li+  Li1  1  0.12500000  0.98345000  0.23345000  1.0
  Li+  Li1  1  0.12500000  0.98345000  0.73345000  1.0
  Li+  Li1  1  0.62500000  0.48345000  0.23345000  1.0
  Li+  Li1  1  0.62500000  0.48345000  0.73345000  1.0
  Li+  Li1  1  0.62500000  0.98345000  0.23345000  1.0
  Li+  Li1  1  0.62500000  0.98345000  0.73345000  1.0
  Li+  Li1  1  0.12500000  0.26655000  0.23345000  1.0
  Li+  Li1  1  0.12500000  0.26655000  0.73345000  1.0
  Li+  Li1  1  0.12500000  0.76655000  0.23345000  1.0
  Li+  Li1  1  0.12500000  0.76655000  0.73345000  1.0
  Li+  Li1  1  0.62500000  0.26655000  0.23345000  1.0
  Li+  Li1  1  0.62500000  0.26655000  0.73345000  1.0
  Li+  Li1  1  0.62500000  0.76655000  0.23345000  1.0
  Li+  Li1  1  0.62500000  0.76655000  0.73345000  1.0
  Li+  Li2  1  0.14835000  0.37500000  0.37500000  1.0
  Li+  Li2  1  0.14835000  0.37500000  0.87500000  1.0
  Li+  Li2  1  0.14835000  0.87500000  0.37500000  1.0
  Li+  Li2  1  0.14835000  0.87500000  0.87500000  1.0
  Li+  Li2  1  0.64835000  0.37500000  0.37500000  1.0
  Li+  Li2  1  0.64835000  0.37500000  0.87500000  1.0
  Li+  Li2  1  0.64835000  0.87500000  0.37500000  1.0
  Li+  Li2  1  0.64835000  0.87500000  0.87500000  1.0
  Li+  Li2  1  0.39835000  0.37500000  0.37500000  1.0
  Li+  Li2  1  0.39835000  0.37500000  0.87500000  1.0
  Li+  Li2  1  0.39835000  0.87500000  0.37500000  1.0
  Li+  Li2  1  0.39835000  0.87500000  0.87500000  1.0
  Li+  Li2  1  0.89835000  0.37500000  0.37500000  1.0
  Li+  Li2  1  0.89835000  0.37500000  0.87500000  1.0
  Li+  Li2  1  0.89835000  0.87500000  0.37500000  1.0
  Li+  Li2  1  0.89835000  0.87500000  0.87500000  1.0
  Li+  Li2  1  0.35165000  0.12500000  0.12500000  1.0
  Li+  Li2  1  0.35165000  0.12500000  0.62500000  1.0
  Li+  Li2  1  0.35165000  0.62500000  0.12500000  1.0
  Li+  Li2  1  0.35165000  0.62500000  0.62500000  1.0
  Li+  Li2  1  0.85165000  0.12500000  0.12500000  1.0
  Li+  Li2  1  0.85165000  0.12500000  0.62500000  1.0
  Li+  Li2  1  0.85165000  0.62500000  0.12500000  1.0
  Li+  Li2  1  0.85165000  0.62500000  0.62500000  1.0
  Li+  Li2  1  0.10165000  0.12500000  0.12500000  1.0
  Li+  Li2  1  0.10165000  0.12500000  0.62500000  1.0
  Li+  Li2  1  0.10165000  0.62500000  0.12500000  1.0
  Li+  Li2  1  0.10165000  0.62500000  0.62500000  1.0
  Li+  Li2  1  0.60165000  0.12500000  0.12500000  1.0
  Li+  Li2  1  0.60165000  0.12500000  0.62500000  1.0
  Li+  Li2  1  0.60165000  0.62500000  0.12500000  1.0
  Li+  Li2  1  0.60165000  0.62500000  0.62500000  1.0
  Zn2+  Zn1  1  0.37500000  0.37500000  0.12500000  1.0
  Zn2+  Zn1  1  0.37500000  0.37500000  0.62500000  1.0
  Zn2+  Zn1  1  0.37500000  0.87500000  0.12500000  1.0
  Zn2+  Zn1  1  0.37500000  0.87500000  0.62500000  1.0
  Zn2+  Zn1  1  0.87500000  0.37500000  0.12500000  1.0
  Zn2+  Zn1  1  0.87500000  0.37500000  0.62500000  1.0
  Zn2+  Zn1  1  0.87500000  0.87500000  0.12500000  1.0
  Zn2+  Zn1  1  0.87500000  0.87500000  0.62500000  1.0
  Zn2+  Zn1  1  0.12500000  0.12500000  0.37500000  1.0
  Zn2+  Zn1  1  0.12500000  0.12500000  0.87500000  1.0
  Zn2+  Zn1  1  0.12500000  0.62500000  0.37500000  1.0
  Zn2+  Zn1  1  0.12500000  0.62500000  0.87500000  1.0
  Zn2+  Zn1  1  0.62500000  0.12500000  0.37500000  1.0
  Zn2+  Zn1  1  0.62500000  0.12500000  0.87500000  1.0
  Zn2+  Zn1  1  0.62500000  0.62500000  0.37500000  1.0
  Zn2+  Zn1  1  0.62500000  0.62500000  0.87500000  1.0
  O2-  O1  1  0.01700000  0.49360000  0.37500000  1.0
  O2-  O1  1  0.01700000  0.49360000  0.87500000  1.0
  O2-  O1  1  0.01700000  0.99360000  0.37500000  1.0
  O2-  O1  1  0.01700000  0.99360000  0.87500000  1.0
  O2-  O1  1  0.51700000  0.49360000  0.37500000  1.0
  O2-  O1  1  0.51700000  0.49360000  0.87500000  1.0
  O2-  O1  1  0.51700000  0.99360000  0.37500000  1.0
  O2-  O1  1  0.51700000  0.99360000  0.87500000  1.0
  O2-  O1  1  0.01700000  0.25640000  0.37500000  1.0
  O2-  O1  1  0.01700000  0.25640000  0.87500000  1.0
  O2-  O1  1  0.01700000  0.75640000  0.37500000  1.0
  O2-  O1  1  0.01700000  0.75640000  0.87500000  1.0
  O2-  O1  1  0.51700000  0.25640000  0.37500000  1.0
  O2-  O1  1  0.51700000  0.25640000  0.87500000  1.0
  O2-  O1  1  0.51700000  0.75640000  0.37500000  1.0
  O2-  O1  1  0.51700000  0.75640000  0.87500000  1.0
  O2-  O1  1  0.26700000  0.37500000  0.49360000  1.0
  O2-  O1  1  0.26700000  0.37500000  0.99360000  1.0
  O2-  O1  1  0.26700000  0.87500000  0.49360000  1.0
  O2-  O1  1  0.26700000  0.87500000  0.99360000  1.0
  O2-  O1  1  0.76700000  0.37500000  0.49360000  1.0
  O2-  O1  1  0.76700000  0.37500000  0.99360000  1.0
  O2-  O1  1  0.76700000  0.87500000  0.49360000  1.0
  O2-  O1  1  0.76700000  0.87500000  0.99360000  1.0
  O2-  O1  1  0.26700000  0.37500000  0.25640000  1.0
  O2-  O1  1  0.26700000  0.37500000  0.75640000  1.0
  O2-  O1  1  0.26700000  0.87500000  0.25640000  1.0
  O2-  O1  1  0.26700000  0.87500000  0.75640000  1.0
  O2-  O1  1  0.76700000  0.37500000  0.25640000  1.0
  O2-  O1  1  0.76700000  0.37500000  0.75640000  1.0
  O2-  O1  1  0.76700000  0.87500000  0.25640000  1.0
  O2-  O1  1  0.76700000  0.87500000  0.75640000  1.0
  O2-  O1  1  0.48300000  0.00640000  0.12500000  1.0
  O2-  O1  1  0.48300000  0.00640000  0.62500000  1.0
  O2-  O1  1  0.48300000  0.50640000  0.12500000  1.0
  O2-  O1  1  0.48300000  0.50640000  0.62500000  1.0
  O2-  O1  1  0.98300000  0.00640000  0.12500000  1.0
  O2-  O1  1  0.98300000  0.00640000  0.62500000  1.0
  O2-  O1  1  0.98300000  0.50640000  0.12500000  1.0
  O2-  O1  1  0.98300000  0.50640000  0.62500000  1.0
  O2-  O1  1  0.48300000  0.24360000  0.12500000  1.0
  O2-  O1  1  0.48300000  0.24360000  0.62500000  1.0
  O2-  O1  1  0.48300000  0.74360000  0.12500000  1.0
  O2-  O1  1  0.48300000  0.74360000  0.62500000  1.0
  O2-  O1  1  0.98300000  0.24360000  0.12500000  1.0
  O2-  O1  1  0.98300000  0.24360000  0.62500000  1.0
  O2-  O1  1  0.98300000  0.74360000  0.12500000  1.0
  O2-  O1  1  0.98300000  0.74360000  0.62500000  1.0
  O2-  O1  1  0.23300000  0.12500000  0.00640000  1.0
  O2-  O1  1  0.23300000  0.12500000  0.50640000  1.0
  O2-  O1  1  0.23300000  0.62500000  0.00640000  1.0
  O2-  O1  1  0.23300000  0.62500000  0.50640000  1.0
  O2-  O1  1  0.73300000  0.12500000  0.00640000  1.0
  O2-  O1  1  0.73300000  0.12500000  0.50640000  1.0
  O2-  O1  1  0.73300000  0.62500000  0.00640000  1.0
  O2-  O1  1  0.73300000  0.62500000  0.50640000  1.0
  O2-  O1  1  0.23300000  0.12500000  0.24360000  1.0
  O2-  O1  1  0.23300000  0.12500000  0.74360000  1.0
  O2-  O1  1  0.23300000  0.62500000  0.24360000  1.0
  O2-  O1  1  0.23300000  0.62500000  0.74360000  1.0
  O2-  O1  1  0.73300000  0.12500000  0.24360000  1.0
  O2-  O1  1  0.73300000  0.12500000  0.74360000  1.0
  O2-  O1  1  0.73300000  0.62500000  0.24360000  1.0
  O2-  O1  1  0.73300000  0.62500000  0.74360000  1.0
