# generated using pymatgen
data_Li16Sn3GeS16
_symmetry_space_group_name_H-M   'P 1'
_cell_length_a   12.56660000
_cell_length_b   14.22560000
_cell_length_c   15.68720000
_cell_angle_alpha   90.00000000
_cell_angle_beta   90.00000000
_cell_angle_gamma   90.00000000
_symmetry_Int_Tables_number   1
_chemical_formula_structural   Li16Sn3GeS16
_chemical_formula_sum   'Li64 Sn12 Ge4 S64'
_cell_volume   2804.36034883
_cell_formula_units_Z   4
loop_
 _symmetry_equiv_pos_site_id
 _symmetry_equiv_pos_as_xyz
  1  'x, y, z'
loop_
 _atom_type_symbol
 _atom_type_oxidation_number
  Li+  1.0
  Sn4+  4.0
  Ge4+  4.0
  S2-  -2.0
loop_
 _atom_site_type_symbol
 _atom_site_label
 _atom_site_symmetry_multiplicity
 _atom_site_fract_x
 _atom_site_fract_y
 _atom_site_fract_z
 _atom_site_occupancy
  Li+  Li0  1  0.31338000  0.40706000  0.62500000  1.0
  Li+  Li1  1  0.31338000  0.40706000  0.12500000  1.0
  Li+  Li2  1  0.81338000  0.40706000  0.62500000  1.0
  Li+  Li3  1  0.81338000  0.40706000  0.12500000  1.0
  Li+  Li4  1  0.18662000  0.59294000  0.37500000  1.0
  Li+  Li5  1  0.18662000  0.59294000  0.87500000  1.0
  Li+  Li6  1  0.68927353  0.59145202  0.37740977  1.0
  Li+  Li7  1  0.68662000  0.59294000  0.87500000  1.0
  Li+  Li8  1  0.06281813  0.09361729  0.37658196  1.0
  Li+  Li9  1  0.06338000  0.09294000  0.87500000  1.0
  Li+  Li10  1  0.56338000  0.09294000  0.37500000  1.0
  Li+  Li11  1  0.56338000  0.09294000  0.87500000  1.0
  Li+  Li12  1  0.43662000  0.90706000  0.62500000  1.0
  Li+  Li13  1  0.43662000  0.90706000  0.12500000  1.0
  Li+  Li14  1  0.93662000  0.90706000  0.62500000  1.0
  Li+  Li15  1  0.93662000  0.90706000  0.12500000  1.0
  Li+  Li16  1  0.33996500  0.17736000  0.74794500  1.0
  Li+  Li17  1  0.33996500  0.17736000  0.24794500  1.0
  Li+  Li18  1  0.83996500  0.17736000  0.74794500  1.0
  Li+  Li19  1  0.83996500  0.17736000  0.24794500  1.0
  Li+  Li20  1  0.16003500  0.82264000  0.49794500  1.0
  Li+  Li21  1  0.16003500  0.82264000  0.99794500  1.0
  Li+  Li22  1  0.66003500  0.82264000  0.49794500  1.0
  Li+  Li23  1  0.66003500  0.82264000  0.99794500  1.0
  Li+  Li24  1  0.08996500  0.32264000  0.25205500  1.0
  Li+  Li25  1  0.08996500  0.32264000  0.75205500  1.0
  Li+  Li26  1  0.58923916  0.32311661  0.25287096  1.0
  Li+  Li27  1  0.58996500  0.32264000  0.75205500  1.0
  Li+  Li28  1  0.08996500  0.32264000  0.49794500  1.0
  Li+  Li29  1  0.08815982  0.32307230  0.99754057  1.0
  Li+  Li30  1  0.58996500  0.32264000  0.49794500  1.0
  Li+  Li31  1  0.58996500  0.32264000  0.99794500  1.0
  Li+  Li32  1  0.33865450  0.17619043  0.50221037  1.0
  Li+  Li33  1  0.33996500  0.17736000  0.00205500  1.0
  Li+  Li34  1  0.83996500  0.17736000  0.50205500  1.0
  Li+  Li35  1  0.83996500  0.17736000  0.00205500  1.0
  Li+  Li36  1  0.16474239  0.81638325  0.25022507  1.0
  Li+  Li37  1  0.16003500  0.82264000  0.75205500  1.0
  Li+  Li38  1  0.66003500  0.82264000  0.25205500  1.0
  Li+  Li39  1  0.66003500  0.82264000  0.75205500  1.0
  Li+  Li40  1  0.41003500  0.67736000  0.50205500  1.0
  Li+  Li41  1  0.41003500  0.67736000  0.00205500  1.0
  Li+  Li42  1  0.91003500  0.67736000  0.50205500  1.0
  Li+  Li43  1  0.90960917  0.67776387  0.00567152  1.0
  Li+  Li44  1  0.41003500  0.67736000  0.74794500  1.0
  Li+  Li45  1  0.40698706  0.67590566  0.24772020  1.0
  Li+  Li46  1  0.91003500  0.67736000  0.74794500  1.0
  Li+  Li47  1  0.91003500  0.67736000  0.24794500  1.0
  Li+  Li48  1  0.76560000  0.00216000  0.74067500  1.0
  Li+  Li49  1  0.76560000  0.00216000  0.24067500  1.0
  Li+  Li50  1  0.73557969  0.99925913  0.48583026  1.0
  Li+  Li51  1  0.73440000  0.99784000  0.99067500  1.0
  Li+  Li52  1  0.01560000  0.49784000  0.25932500  1.0
  Li+  Li53  1  0.01560000  0.49784000  0.75932500  1.0
  Li+  Li54  1  0.51560000  0.49784000  0.25932500  1.0
  Li+  Li55  1  0.51560000  0.49784000  0.75932500  1.0
  Li+  Li56  1  0.01560000  0.49784000  0.49067500  1.0
  Li+  Li57  1  0.01337441  0.49924000  0.99234040  1.0
  Li+  Li58  1  0.51745479  0.49827161  0.48802635  1.0
  Li+  Li59  1  0.51635831  0.49985820  0.98731981  1.0
  Li+  Li60  1  0.26560000  0.00216000  0.50932500  1.0
  Li+  Li61  1  0.26560000  0.00216000  0.00932500  1.0
  Li+  Li62  1  0.23239879  0.99842260  0.25856091  1.0
  Li+  Li63  1  0.23440000  0.99784000  0.75932500  1.0
  Sn4+  Sn64  1  0.32215000  0.40880000  0.37500000  1.0
  Sn4+  Sn65  1  0.32215000  0.40880000  0.87500000  1.0
  Sn4+  Sn66  1  0.17785000  0.59120000  0.62500000  1.0
  Sn4+  Sn67  1  0.17785000  0.59120000  0.12500000  1.0
  Sn4+  Sn68  1  0.67785000  0.59120000  0.62500000  1.0
  Sn4+  Sn69  1  0.67785000  0.59120000  0.12500000  1.0
  Sn4+  Sn70  1  0.57215000  0.09120000  0.62500000  1.0
  Sn4+  Sn71  1  0.57200458  0.09432451  0.12356100  1.0
  Sn4+  Sn72  1  0.42817675  0.90898665  0.37088074  1.0
  Sn4+  Sn73  1  0.42785000  0.90880000  0.87500000  1.0
  Sn4+  Sn74  1  0.92785000  0.90880000  0.37500000  1.0
  Sn4+  Sn75  1  0.92785000  0.90880000  0.87500000  1.0
  Ge4+  Ge76  1  0.82215000  0.40880000  0.37500000  1.0
  Ge4+  Ge77  1  0.82240983  0.40675085  0.87853982  1.0
  Ge4+  Ge78  1  0.06888228  0.08877385  0.62252440  1.0
  Ge4+  Ge79  1  0.07215000  0.09120000  0.12500000  1.0
  S2-  S80  1  0.39214260  0.34013946  0.25019996  1.0
  S2-  S81  1  0.39163500  0.34003000  0.75246000  1.0
  S2-  S82  1  0.89665455  0.33715063  0.25592610  1.0
  S2-  S83  1  0.89163500  0.34003000  0.75246000  1.0
  S2-  S84  1  0.10844931  0.65702949  0.50418579  1.0
  S2-  S85  1  0.10836500  0.65997000  0.00246000  1.0
  S2-  S86  1  0.60836500  0.65997000  0.50246000  1.0
  S2-  S87  1  0.60836500  0.65997000  0.00246000  1.0
  S2-  S88  1  0.14398701  0.16250446  0.74979320  1.0
  S2-  S89  1  0.14250707  0.15961252  0.25032787  1.0
  S2-  S90  1  0.63909756  0.16174283  0.74742172  1.0
  S2-  S91  1  0.64163500  0.15997000  0.24754000  1.0
  S2-  S92  1  0.14262869  0.15696264  0.50737171  1.0
  S2-  S93  1  0.14163500  0.15997000  0.00246000  1.0
  S2-  S94  1  0.64169501  0.15828667  0.50374838  1.0
  S2-  S95  1  0.64163500  0.15997000  0.00246000  1.0
  S2-  S96  1  0.38749646  0.34102023  0.50041898  1.0
  S2-  S97  1  0.39163500  0.34003000  0.99754000  1.0
  S2-  S98  1  0.89163500  0.34003000  0.49754000  1.0
  S2-  S99  1  0.89163500  0.34003000  0.99754000  1.0
  S2-  S100  1  0.10378871  0.65733805  0.74825325  1.0
  S2-  S101  1  0.11044001  0.66217737  0.24895966  1.0
  S2-  S102  1  0.61106761  0.66254083  0.74689100  1.0
  S2-  S103  1  0.60836500  0.65997000  0.24754000  1.0
  S2-  S104  1  0.35836500  0.84003000  0.49754000  1.0
  S2-  S105  1  0.35836500  0.84003000  0.99754000  1.0
  S2-  S106  1  0.85836500  0.84003000  0.49754000  1.0
  S2-  S107  1  0.85836500  0.84003000  0.99754000  1.0
  S2-  S108  1  0.35836500  0.84003000  0.25246000  1.0
  S2-  S109  1  0.35836500  0.84003000  0.75246000  1.0
  S2-  S110  1  0.85641231  0.83959593  0.25196903  1.0
  S2-  S111  1  0.85836500  0.84003000  0.75246000  1.0
  S2-  S112  1  0.38637500  0.08412000  0.62500000  1.0
  S2-  S113  1  0.38637500  0.08412000  0.12500000  1.0
  S2-  S114  1  0.88637500  0.08412000  0.62500000  1.0
  S2-  S115  1  0.88637500  0.08412000  0.12500000  1.0
  S2-  S116  1  0.11362500  0.91588000  0.37500000  1.0
  S2-  S117  1  0.11362500  0.91588000  0.87500000  1.0
  S2-  S118  1  0.61362500  0.91588000  0.37500000  1.0
  S2-  S119  1  0.61362500  0.91588000  0.87500000  1.0
  S2-  S120  1  0.13637500  0.41588000  0.37500000  1.0
  S2-  S121  1  0.13565506  0.41759106  0.87238040  1.0
  S2-  S122  1  0.63637500  0.41588000  0.37500000  1.0
  S2-  S123  1  0.63903143  0.41711461  0.87534525  1.0
  S2-  S124  1  0.36362500  0.58412000  0.62500000  1.0
  S2-  S125  1  0.36362500  0.58412000  0.12500000  1.0
  S2-  S126  1  0.86362500  0.58412000  0.62500000  1.0
  S2-  S127  1  0.85811289  0.58116109  0.12781998  1.0
  S2-  S128  1  0.36845579  0.06420215  0.37329119  1.0
  S2-  S129  1  0.36488484  0.06559636  0.87546274  1.0
  S2-  S130  1  0.86706500  0.06473000  0.37500000  1.0
  S2-  S131  1  0.86706500  0.06473000  0.87500000  1.0
  S2-  S132  1  0.13293500  0.93527000  0.62500000  1.0
  S2-  S133  1  0.13293500  0.93527000  0.12500000  1.0
  S2-  S134  1  0.63329704  0.93662298  0.62452826  1.0
  S2-  S135  1  0.63293500  0.93527000  0.12500000  1.0
  S2-  S136  1  0.11706500  0.43527000  0.62500000  1.0
  S2-  S137  1  0.11706500  0.43527000  0.12500000  1.0
  S2-  S138  1  0.61706500  0.43527000  0.62500000  1.0
  S2-  S139  1  0.61706500  0.43527000  0.12500000  1.0
  S2-  S140  1  0.38293500  0.56473000  0.37500000  1.0
  S2-  S141  1  0.38293500  0.56473000  0.87500000  1.0
  S2-  S142  1  0.88293500  0.56473000  0.37500000  1.0
  S2-  S143  1  0.88293500  0.56473000  0.87500000  1.0
