# generated using pymatgen
data_Li16Sn3GeS16
_symmetry_space_group_name_H-M   'P 1'
_cell_length_a   15.78222452
_cell_length_b   12.64272162
_cell_length_c   14.31177094
_cell_angle_alpha   90.00000000
_cell_angle_beta   90.00000000
_cell_angle_gamma   90.00000000
_symmetry_Int_Tables_number   1
_chemical_formula_structural   Li16Sn3GeS16
_chemical_formula_sum   'Li64 Sn12 Ge4 S64'
_cell_volume   2855.63153630
_cell_formula_units_Z   4
loop_
 _symmetry_equiv_pos_site_id
 _symmetry_equiv_pos_as_xyz
  1  'x, y, z'
loop_
 _atom_type_symbol
 _atom_type_oxidation_number
  Li+  1.0
  Sn4+  4.0
  Ge4+  4.0
  S2-  -2.0
loop_
 _atom_site_type_symbol
 _atom_site_label
 _atom_site_symmetry_multiplicity
 _atom_site_fract_x
 _atom_site_fract_y
 _atom_site_fract_z
 _atom_site_occupancy
  Li+  Li0  1  0.87500000  0.35328667  0.59294000  1.0
  Li+  Li1  1  0.37500000  0.35328667  0.59294000  1.0
  Li+  Li2  1  0.87500000  0.85328667  0.59294000  1.0
  Li+  Li3  1  0.37500000  0.85328667  0.59294000  1.0
  Li+  Li4  1  0.62500000  0.48004667  0.40706000  1.0
  Li+  Li5  1  0.12500000  0.48004667  0.40706000  1.0
  Li+  Li6  1  0.62500000  0.98004667  0.40706000  1.0
  Li+  Li7  1  0.12500000  0.98004667  0.40706000  1.0
  Li+  Li8  1  0.62500000  0.60328667  0.90706000  1.0
  Li+  Li9  1  0.12500000  0.60328667  0.90706000  1.0
  Li+  Li10  1  0.62500000  0.10328667  0.90706000  1.0
  Li+  Li11  1  0.12500000  0.10328667  0.90706000  1.0
  Li+  Li12  1  0.87500000  0.23004667  0.09294000  1.0
  Li+  Li13  1  0.37500000  0.23004667  0.09294000  1.0
  Li+  Li14  1  0.87500000  0.73004667  0.09294000  1.0
  Li+  Li15  1  0.37500000  0.73004667  0.09294000  1.0
  Li+  Li16  1  0.99794500  0.32670167  0.82264000  1.0
  Li+  Li17  1  0.49794500  0.32670167  0.82264000  1.0
  Li+  Li18  1  0.99794500  0.82670167  0.82264000  1.0
  Li+  Li19  1  0.49794500  0.82670167  0.82264000  1.0
  Li+  Li20  1  0.74794500  0.50663167  0.17736000  1.0
  Li+  Li21  1  0.24794500  0.50663167  0.17736000  1.0
  Li+  Li22  1  0.74794500  0.00663167  0.17736000  1.0
  Li+  Li23  1  0.24794500  0.00663167  0.17736000  1.0
  Li+  Li24  1  0.50205500  0.57670167  0.67736000  1.0
  Li+  Li25  1  0.00205500  0.57670167  0.67736000  1.0
  Li+  Li26  1  0.50205500  0.07670167  0.67736000  1.0
  Li+  Li27  1  0.00205500  0.07670167  0.67736000  1.0
  Li+  Li28  1  0.74794500  0.57670167  0.67736000  1.0
  Li+  Li29  1  0.24794500  0.57670167  0.67736000  1.0
  Li+  Li30  1  0.74794500  0.07670167  0.67736000  1.0
  Li+  Li31  1  0.24794500  0.07670167  0.67736000  1.0
  Li+  Li32  1  0.75205500  0.32670167  0.82264000  1.0
  Li+  Li33  1  0.25205500  0.32670167  0.82264000  1.0
  Li+  Li34  1  0.75205500  0.82670167  0.82264000  1.0
  Li+  Li35  1  0.25205500  0.82670167  0.82264000  1.0
  Li+  Li36  1  0.50205500  0.50663167  0.17736000  1.0
  Li+  Li37  1  0.00205500  0.50663167  0.17736000  1.0
  Li+  Li38  1  0.50205500  0.00663167  0.17736000  1.0
  Li+  Li39  1  0.00205500  0.00663167  0.17736000  1.0
  Li+  Li40  1  0.75205500  0.25663167  0.32264000  1.0
  Li+  Li41  1  0.25205500  0.25663167  0.32264000  1.0
  Li+  Li42  1  0.75205500  0.75663167  0.32264000  1.0
  Li+  Li43  1  0.25205500  0.75663167  0.32264000  1.0
  Li+  Li44  1  0.99794500  0.25663167  0.32264000  1.0
  Li+  Li45  1  0.49794500  0.25663167  0.32264000  1.0
  Li+  Li46  1  0.99794500  0.75663167  0.32264000  1.0
  Li+  Li47  1  0.49794500  0.75663167  0.32264000  1.0
  Li+  Li48  1  0.99067500  0.90106667  0.99784000  1.0
  Li+  Li49  1  0.49067500  0.90106667  0.99784000  1.0
  Li+  Li50  1  0.74067500  0.93226667  0.00216000  1.0
  Li+  Li51  1  0.24067500  0.93226667  0.00216000  1.0
  Li+  Li52  1  0.50932500  0.65106667  0.50216000  1.0
  Li+  Li53  1  0.00932500  0.65106667  0.50216000  1.0
  Li+  Li54  1  0.50932500  0.15106667  0.50216000  1.0
  Li+  Li55  1  0.00932500  0.15106667  0.50216000  1.0
  Li+  Li56  1  0.74067500  0.65106667  0.50216000  1.0
  Li+  Li57  1  0.24067500  0.65106667  0.50216000  1.0
  Li+  Li58  1  0.74067500  0.15106667  0.50216000  1.0
  Li+  Li59  1  0.24067500  0.15106667  0.50216000  1.0
  Li+  Li60  1  0.75932500  0.40106667  0.99784000  1.0
  Li+  Li61  1  0.25932500  0.40106667  0.99784000  1.0
  Li+  Li62  1  0.50932500  0.43226667  0.00216000  1.0
  Li+  Li63  1  0.00932500  0.43226667  0.00216000  1.0
  Sn4+  Sn64  1  0.62500000  0.34451667  0.59120000  1.0
  Sn4+  Sn65  1  0.12500000  0.34451667  0.59120000  1.0
  Sn4+  Sn66  1  0.87500000  0.48881667  0.40880000  1.0
  Sn4+  Sn67  1  0.37500000  0.48881667  0.40880000  1.0
  Sn4+  Sn68  1  0.87500000  0.98881667  0.40880000  1.0
  Sn4+  Sn69  1  0.37500000  0.98881667  0.40880000  1.0
  Sn4+  Sn70  1  0.87500000  0.09451667  0.90880000  1.0
  Sn4+  Sn71  1  0.37500000  0.09451667  0.90880000  1.0
  Sn4+  Sn72  1  0.62500000  0.23881667  0.09120000  1.0
  Sn4+  Sn73  1  0.12500000  0.23881667  0.09120000  1.0
  Sn4+  Sn74  1  0.62500000  0.73881667  0.09120000  1.0
  Sn4+  Sn75  1  0.12500000  0.73881667  0.09120000  1.0
  Ge4+  Ge76  1  0.62500000  0.84451667  0.59120000  1.0
  Ge4+  Ge77  1  0.12500000  0.84451667  0.59120000  1.0
  Ge4+  Ge78  1  0.87500000  0.59451667  0.90880000  1.0
  Ge4+  Ge79  1  0.37500000  0.59451667  0.90880000  1.0
  S2-  S80  1  0.50246000  0.27503167  0.65997000  1.0
  S2-  S81  1  0.00246000  0.27503167  0.65997000  1.0
  S2-  S82  1  0.50246000  0.77503167  0.65997000  1.0
  S2-  S83  1  0.00246000  0.77503167  0.65997000  1.0
  S2-  S84  1  0.75246000  0.55830167  0.34003000  1.0
  S2-  S85  1  0.25246000  0.55830167  0.34003000  1.0
  S2-  S86  1  0.75246000  0.05830167  0.34003000  1.0
  S2-  S87  1  0.25246000  0.05830167  0.34003000  1.0
  S2-  S88  1  0.99754000  0.52503167  0.84003000  1.0
  S2-  S89  1  0.49754000  0.52503167  0.84003000  1.0
  S2-  S90  1  0.99754000  0.02503167  0.84003000  1.0
  S2-  S91  1  0.49754000  0.02503167  0.84003000  1.0
  S2-  S92  1  0.75246000  0.52503167  0.84003000  1.0
  S2-  S93  1  0.25246000  0.52503167  0.84003000  1.0
  S2-  S94  1  0.75246000  0.02503167  0.84003000  1.0
  S2-  S95  1  0.25246000  0.02503167  0.84003000  1.0
  S2-  S96  1  0.74754000  0.27503167  0.65997000  1.0
  S2-  S97  1  0.24754000  0.27503167  0.65997000  1.0
  S2-  S98  1  0.74754000  0.77503167  0.65997000  1.0
  S2-  S99  1  0.24754000  0.77503167  0.65997000  1.0
  S2-  S100  1  0.99754000  0.55830167  0.34003000  1.0
  S2-  S101  1  0.49754000  0.55830167  0.34003000  1.0
  S2-  S102  1  0.99754000  0.05830167  0.34003000  1.0
  S2-  S103  1  0.49754000  0.05830167  0.34003000  1.0
  S2-  S104  1  0.74754000  0.30830167  0.15997000  1.0
  S2-  S105  1  0.24754000  0.30830167  0.15997000  1.0
  S2-  S106  1  0.74754000  0.80830167  0.15997000  1.0
  S2-  S107  1  0.24754000  0.80830167  0.15997000  1.0
  S2-  S108  1  0.50246000  0.30830167  0.15997000  1.0
  S2-  S109  1  0.00246000  0.30830167  0.15997000  1.0
  S2-  S110  1  0.50246000  0.80830167  0.15997000  1.0
  S2-  S111  1  0.00246000  0.80830167  0.15997000  1.0
  S2-  S112  1  0.87500000  0.28029167  0.91588000  1.0
  S2-  S113  1  0.37500000  0.28029167  0.91588000  1.0
  S2-  S114  1  0.87500000  0.78029167  0.91588000  1.0
  S2-  S115  1  0.37500000  0.78029167  0.91588000  1.0
  S2-  S116  1  0.62500000  0.55304167  0.08412000  1.0
  S2-  S117  1  0.12500000  0.55304167  0.08412000  1.0
  S2-  S118  1  0.62500000  0.05304167  0.08412000  1.0
  S2-  S119  1  0.12500000  0.05304167  0.08412000  1.0
  S2-  S120  1  0.62500000  0.53029167  0.58412000  1.0
  S2-  S121  1  0.12500000  0.53029167  0.58412000  1.0
  S2-  S122  1  0.62500000  0.03029167  0.58412000  1.0
  S2-  S123  1  0.12500000  0.03029167  0.58412000  1.0
  S2-  S124  1  0.87500000  0.30304167  0.41588000  1.0
  S2-  S125  1  0.37500000  0.30304167  0.41588000  1.0
  S2-  S126  1  0.87500000  0.80304167  0.41588000  1.0
  S2-  S127  1  0.37500000  0.80304167  0.41588000  1.0
  S2-  S128  1  0.62500000  0.29960167  0.93527000  1.0
  S2-  S129  1  0.12500000  0.29960167  0.93527000  1.0
  S2-  S130  1  0.62500000  0.79960167  0.93527000  1.0
  S2-  S131  1  0.12500000  0.79960167  0.93527000  1.0
  S2-  S132  1  0.87500000  0.53373167  0.06473000  1.0
  S2-  S133  1  0.37500000  0.53373167  0.06473000  1.0
  S2-  S134  1  0.87500000  0.03373167  0.06473000  1.0
  S2-  S135  1  0.37500000  0.03373167  0.06473000  1.0
  S2-  S136  1  0.87500000  0.54960167  0.56473000  1.0
  S2-  S137  1  0.37500000  0.54960167  0.56473000  1.0
  S2-  S138  1  0.87500000  0.04960167  0.56473000  1.0
  S2-  S139  1  0.37500000  0.04960167  0.56473000  1.0
  S2-  S140  1  0.62500000  0.28373167  0.43527000  1.0
  S2-  S141  1  0.12500000  0.28373167  0.43527000  1.0
  S2-  S142  1  0.62500000  0.78373167  0.43527000  1.0
  S2-  S143  1  0.12500000  0.78373167  0.43527000  1.0
