# generated using pymatgen
data_Li16Sn3GeS16
_symmetry_space_group_name_H-M   'P 1'
_cell_length_a   12.56660000
_cell_length_b   15.68720000
_cell_length_c   14.22560000
_cell_angle_alpha   90.00000000
_cell_angle_beta   90.00000000
_cell_angle_gamma   90.00000000
_symmetry_Int_Tables_number   1
_chemical_formula_structural   Li16Sn3GeS16
_chemical_formula_sum   'Li64 Sn12 Ge4 S64'
_cell_volume   2804.36034883
_cell_formula_units_Z   4
loop_
 _symmetry_equiv_pos_site_id
 _symmetry_equiv_pos_as_xyz
  1  'x, y, z'
loop_
 _atom_type_symbol
 _atom_type_oxidation_number
  Li+  1.0
  Sn4+  4.0
  Ge4+  4.0
  S2-  -2.0
loop_
 _atom_site_type_symbol
 _atom_site_label
 _atom_site_symmetry_multiplicity
 _atom_site_fract_x
 _atom_site_fract_y
 _atom_site_fract_z
 _atom_site_occupancy
  Li+  Li1  1  0.31338000  0.12500000  0.59294000  1.0
  Li+  Li1  1  0.31338000  0.62500000  0.59294000  1.0
  Li+  Li1  1  0.81338000  0.12500000  0.59294000  1.0
  Li+  Li1  1  0.81338000  0.62500000  0.59294000  1.0
  Li+  Li1  1  0.18662000  0.37500000  0.40706000  1.0
  Li+  Li1  1  0.18662000  0.87500000  0.40706000  1.0
  Li+  Li1  1  0.68662000  0.37500000  0.40706000  1.0
  Li+  Li1  1  0.68662000  0.87500000  0.40706000  1.0
  Li+  Li1  1  0.06338000  0.37500000  0.90706000  1.0
  Li+  Li1  1  0.06338000  0.87500000  0.90706000  1.0
  Li+  Li1  1  0.56338000  0.37500000  0.90706000  1.0
  Li+  Li1  1  0.56338000  0.87500000  0.90706000  1.0
  Li+  Li1  1  0.43662000  0.12500000  0.09294000  1.0
  Li+  Li1  1  0.43662000  0.62500000  0.09294000  1.0
  Li+  Li1  1  0.93662000  0.12500000  0.09294000  1.0
  Li+  Li1  1  0.93662000  0.62500000  0.09294000  1.0
  Li+  Li2  1  0.33996500  0.00205500  0.82264000  1.0
  Li+  Li2  1  0.33996500  0.50205500  0.82264000  1.0
  Li+  Li2  1  0.83996500  0.00205500  0.82264000  1.0
  Li+  Li2  1  0.83996500  0.50205500  0.82264000  1.0
  Li+  Li2  1  0.16003500  0.25205500  0.17736000  1.0
  Li+  Li2  1  0.16003500  0.75205500  0.17736000  1.0
  Li+  Li2  1  0.66003500  0.25205500  0.17736000  1.0
  Li+  Li2  1  0.66003500  0.75205500  0.17736000  1.0
  Li+  Li2  1  0.08996500  0.49794500  0.67736000  1.0
  Li+  Li2  1  0.08996500  0.99794500  0.67736000  1.0
  Li+  Li2  1  0.58996500  0.49794500  0.67736000  1.0
  Li+  Li2  1  0.58996500  0.99794500  0.67736000  1.0
  Li+  Li2  1  0.08996500  0.25205500  0.67736000  1.0
  Li+  Li2  1  0.08996500  0.75205500  0.67736000  1.0
  Li+  Li2  1  0.58996500  0.25205500  0.67736000  1.0
  Li+  Li2  1  0.58996500  0.75205500  0.67736000  1.0
  Li+  Li2  1  0.33996500  0.24794500  0.82264000  1.0
  Li+  Li2  1  0.33996500  0.74794500  0.82264000  1.0
  Li+  Li2  1  0.83996500  0.24794500  0.82264000  1.0
  Li+  Li2  1  0.83996500  0.74794500  0.82264000  1.0
  Li+  Li2  1  0.16003500  0.49794500  0.17736000  1.0
  Li+  Li2  1  0.16003500  0.99794500  0.17736000  1.0
  Li+  Li2  1  0.66003500  0.49794500  0.17736000  1.0
  Li+  Li2  1  0.66003500  0.99794500  0.17736000  1.0
  Li+  Li2  1  0.41003500  0.24794500  0.32264000  1.0
  Li+  Li2  1  0.41003500  0.74794500  0.32264000  1.0
  Li+  Li2  1  0.91003500  0.24794500  0.32264000  1.0
  Li+  Li2  1  0.91003500  0.74794500  0.32264000  1.0
  Li+  Li2  1  0.41003500  0.00205500  0.32264000  1.0
  Li+  Li2  1  0.41003500  0.50205500  0.32264000  1.0
  Li+  Li2  1  0.91003500  0.00205500  0.32264000  1.0
  Li+  Li2  1  0.91003500  0.50205500  0.32264000  1.0
  Li+  Li24  1  0.76560000  0.00932500  0.99784000  1.0
  Li+  Li24  1  0.76560000  0.50932500  0.99784000  1.0
  Li+  Li25  1  0.73440000  0.25932500  0.00216000  1.0
  Li+  Li25  1  0.73440000  0.75932500  0.00216000  1.0
  Li+  Li26  1  0.01560000  0.49067500  0.50216000  1.0
  Li+  Li26  1  0.01560000  0.99067500  0.50216000  1.0
  Li+  Li27  1  0.51560000  0.49067500  0.50216000  1.0
  Li+  Li27  1  0.51560000  0.99067500  0.50216000  1.0
  Li+  Li28  1  0.01560000  0.25932500  0.50216000  1.0
  Li+  Li28  1  0.01560000  0.75932500  0.50216000  1.0
  Li+  Li29  1  0.51560000  0.25932500  0.50216000  1.0
  Li+  Li29  1  0.51560000  0.75932500  0.50216000  1.0
  Li+  Li30  1  0.26560000  0.24067500  0.99784000  1.0
  Li+  Li30  1  0.26560000  0.74067500  0.99784000  1.0
  Li+  Li31  1  0.23440000  0.49067500  0.00216000  1.0
  Li+  Li31  1  0.23440000  0.99067500  0.00216000  1.0
  Sn4+  Sn32  1  0.32215000  0.37500000  0.59120000  1.0
  Sn4+  Sn32  1  0.32215000  0.87500000  0.59120000  1.0
  Sn4+  Sn33  1  0.17785000  0.12500000  0.40880000  1.0
  Sn4+  Sn33  1  0.17785000  0.62500000  0.40880000  1.0
  Sn4+  Sn34  1  0.67785000  0.12500000  0.40880000  1.0
  Sn4+  Sn34  1  0.67785000  0.62500000  0.40880000  1.0
  Sn4+  Sn35  1  0.57215000  0.12500000  0.90880000  1.0
  Sn4+  Sn35  1  0.57215000  0.62500000  0.90880000  1.0
  Sn4+  Sn36  1  0.42785000  0.37500000  0.09120000  1.0
  Sn4+  Sn36  1  0.42785000  0.87500000  0.09120000  1.0
  Sn4+  Sn37  1  0.92785000  0.37500000  0.09120000  1.0
  Sn4+  Sn37  1  0.92785000  0.87500000  0.09120000  1.0
  Ge4+  Ge38  1  0.82215000  0.37500000  0.59120000  1.0
  Ge4+  Ge38  1  0.82215000  0.87500000  0.59120000  1.0
  Ge4+  Ge39  1  0.07215000  0.12500000  0.90880000  1.0
  Ge4+  Ge39  1  0.07215000  0.62500000  0.90880000  1.0
  S2-  S1  1  0.39163500  0.49754000  0.65997000  1.0
  S2-  S1  1  0.39163500  0.99754000  0.65997000  1.0
  S2-  S1  1  0.89163500  0.49754000  0.65997000  1.0
  S2-  S1  1  0.89163500  0.99754000  0.65997000  1.0
  S2-  S1  1  0.10836500  0.24754000  0.34003000  1.0
  S2-  S1  1  0.10836500  0.74754000  0.34003000  1.0
  S2-  S1  1  0.60836500  0.24754000  0.34003000  1.0
  S2-  S1  1  0.60836500  0.74754000  0.34003000  1.0
  S2-  S1  1  0.14163500  0.00246000  0.84003000  1.0
  S2-  S1  1  0.14163500  0.50246000  0.84003000  1.0
  S2-  S1  1  0.64163500  0.00246000  0.84003000  1.0
  S2-  S1  1  0.64163500  0.50246000  0.84003000  1.0
  S2-  S1  1  0.14163500  0.24754000  0.84003000  1.0
  S2-  S1  1  0.14163500  0.74754000  0.84003000  1.0
  S2-  S1  1  0.64163500  0.24754000  0.84003000  1.0
  S2-  S1  1  0.64163500  0.74754000  0.84003000  1.0
  S2-  S1  1  0.39163500  0.25246000  0.65997000  1.0
  S2-  S1  1  0.39163500  0.75246000  0.65997000  1.0
  S2-  S1  1  0.89163500  0.25246000  0.65997000  1.0
  S2-  S1  1  0.89163500  0.75246000  0.65997000  1.0
  S2-  S1  1  0.10836500  0.00246000  0.34003000  1.0
  S2-  S1  1  0.10836500  0.50246000  0.34003000  1.0
  S2-  S1  1  0.60836500  0.00246000  0.34003000  1.0
  S2-  S1  1  0.60836500  0.50246000  0.34003000  1.0
  S2-  S1  1  0.35836500  0.25246000  0.15997000  1.0
  S2-  S1  1  0.35836500  0.75246000  0.15997000  1.0
  S2-  S1  1  0.85836500  0.25246000  0.15997000  1.0
  S2-  S1  1  0.85836500  0.75246000  0.15997000  1.0
  S2-  S1  1  0.35836500  0.49754000  0.15997000  1.0
  S2-  S1  1  0.35836500  0.99754000  0.15997000  1.0
  S2-  S1  1  0.85836500  0.49754000  0.15997000  1.0
  S2-  S1  1  0.85836500  0.99754000  0.15997000  1.0
  S2-  S2  1  0.38637500  0.12500000  0.91588000  1.0
  S2-  S2  1  0.38637500  0.62500000  0.91588000  1.0
  S2-  S2  1  0.88637500  0.12500000  0.91588000  1.0
  S2-  S2  1  0.88637500  0.62500000  0.91588000  1.0
  S2-  S2  1  0.11362500  0.37500000  0.08412000  1.0
  S2-  S2  1  0.11362500  0.87500000  0.08412000  1.0
  S2-  S2  1  0.61362500  0.37500000  0.08412000  1.0
  S2-  S2  1  0.61362500  0.87500000  0.08412000  1.0
  S2-  S2  1  0.13637500  0.37500000  0.58412000  1.0
  S2-  S2  1  0.13637500  0.87500000  0.58412000  1.0
  S2-  S2  1  0.63637500  0.37500000  0.58412000  1.0
  S2-  S2  1  0.63637500  0.87500000  0.58412000  1.0
  S2-  S2  1  0.36362500  0.12500000  0.41588000  1.0
  S2-  S2  1  0.36362500  0.62500000  0.41588000  1.0
  S2-  S2  1  0.86362500  0.12500000  0.41588000  1.0
  S2-  S2  1  0.86362500  0.62500000  0.41588000  1.0
  S2-  S3  1  0.36706500  0.37500000  0.93527000  1.0
  S2-  S3  1  0.36706500  0.87500000  0.93527000  1.0
  S2-  S3  1  0.86706500  0.37500000  0.93527000  1.0
  S2-  S3  1  0.86706500  0.87500000  0.93527000  1.0
  S2-  S3  1  0.13293500  0.12500000  0.06473000  1.0
  S2-  S3  1  0.13293500  0.62500000  0.06473000  1.0
  S2-  S3  1  0.63293500  0.12500000  0.06473000  1.0
  S2-  S3  1  0.63293500  0.62500000  0.06473000  1.0
  S2-  S3  1  0.11706500  0.12500000  0.56473000  1.0
  S2-  S3  1  0.11706500  0.62500000  0.56473000  1.0
  S2-  S3  1  0.61706500  0.12500000  0.56473000  1.0
  S2-  S3  1  0.61706500  0.62500000  0.56473000  1.0
  S2-  S3  1  0.38293500  0.37500000  0.43527000  1.0
  S2-  S3  1  0.38293500  0.87500000  0.43527000  1.0
  S2-  S3  1  0.88293500  0.37500000  0.43527000  1.0
  S2-  S3  1  0.88293500  0.87500000  0.43527000  1.0
