# generated using pymatgen
data_Li2CePr(MoO4)4
_symmetry_space_group_name_H-M   'P 1'
_cell_length_a   21.13600000
_cell_length_b   13.77868040
_cell_length_c   10.56800000
_cell_angle_alpha   112.55009193
_cell_angle_beta   90.00000000
_cell_angle_gamma   67.44990807
_symmetry_Int_Tables_number   1
_chemical_formula_structural   Li2CePr(MoO4)4
_chemical_formula_sum   'Li16 Ce8 Pr8 Mo32 O128'
_cell_volume   2585.74311944
_cell_formula_units_Z   8
loop_
 _symmetry_equiv_pos_site_id
 _symmetry_equiv_pos_as_xyz
  1  'x, y, z'
loop_
 _atom_type_symbol
 _atom_type_oxidation_number
  Li+  1.0
  Ce3+  3.0
  Pr3+  3.0
  Mo6+  6.0
  O2-  -2.0
loop_
 _atom_site_type_symbol
 _atom_site_label
 _atom_site_symmetry_multiplicity
 _atom_site_fract_x
 _atom_site_fract_y
 _atom_site_fract_z
 _atom_site_occupancy
  Li+  Li0  1  0.15420763  0.87576373  0.81336998  1.0
  Li+  Li1  1  0.65625000  0.87500000  0.81250000  1.0
  Li+  Li2  1  0.40625000  0.37500000  0.81250000  1.0
  Li+  Li3  1  0.90625000  0.37500000  0.81250000  1.0
  Li+  Li4  1  0.09375000  0.62500000  0.18750000  1.0
  Li+  Li5  1  0.59003195  0.62148293  0.18679825  1.0
  Li+  Li6  1  0.09375000  0.12500000  0.18750000  1.0
  Li+  Li7  1  0.59375000  0.12500000  0.18750000  1.0
  Li+  Li8  1  0.34375000  0.62500000  0.68750000  1.0
  Li+  Li9  1  0.84375000  0.62500000  0.68750000  1.0
  Li+  Li10  1  0.34120914  0.12508998  0.68620024  1.0
  Li+  Li11  1  0.84375000  0.12500000  0.68750000  1.0
  Li+  Li12  1  0.34375000  0.62500000  0.18750000  1.0
  Li+  Li13  1  0.84375000  0.62500000  0.18750000  1.0
  Li+  Li14  1  0.34375000  0.12500000  0.18750000  1.0
  Li+  Li15  1  0.84342315  0.12494656  0.18486036  1.0
  Ce3+  Ce16  1  0.15840132  0.37321878  0.31096135  1.0
  Ce3+  Ce17  1  0.65625000  0.37500000  0.31250000  1.0
  Ce3+  Ce18  1  0.15625000  0.37500000  0.81250000  1.0
  Ce3+  Ce19  1  0.65625000  0.37500000  0.81250000  1.0
  Ce3+  Ce20  1  0.09375000  0.62500000  0.68750000  1.0
  Ce3+  Ce21  1  0.59375000  0.62500000  0.68750000  1.0
  Ce3+  Ce22  1  0.09375000  0.12500000  0.68750000  1.0
  Ce3+  Ce23  1  0.59375000  0.12500000  0.68750000  1.0
  Pr3+  Pr24  1  0.15913241  0.87742559  0.31506041  1.0
  Pr3+  Pr25  1  0.65625000  0.87500000  0.31250000  1.0
  Pr3+  Pr26  1  0.40625000  0.87500000  0.31250000  1.0
  Pr3+  Pr27  1  0.90566859  0.87248714  0.31320854  1.0
  Pr3+  Pr28  1  0.40625000  0.37500000  0.31250000  1.0
  Pr3+  Pr29  1  0.90625000  0.37500000  0.31250000  1.0
  Pr3+  Pr30  1  0.40746940  0.87184073  0.81570207  1.0
  Pr3+  Pr31  1  0.90363931  0.87426299  0.81460038  1.0
  Mo6+  Mo32  1  0.03125000  0.87500000  0.56250000  1.0
  Mo6+  Mo33  1  0.53323373  0.87550474  0.56262057  1.0
  Mo6+  Mo34  1  0.02677958  0.37401348  0.56316144  1.0
  Mo6+  Mo35  1  0.53125000  0.37500000  0.56250000  1.0
  Mo6+  Mo36  1  0.03125000  0.87500000  0.06250000  1.0
  Mo6+  Mo37  1  0.53125000  0.87500000  0.06250000  1.0
  Mo6+  Mo38  1  0.03125000  0.37500000  0.06250000  1.0
  Mo6+  Mo39  1  0.53125000  0.37500000  0.06250000  1.0
  Mo6+  Mo40  1  0.28125000  0.87500000  0.56250000  1.0
  Mo6+  Mo41  1  0.78125000  0.87500000  0.56250000  1.0
  Mo6+  Mo42  1  0.28125000  0.37500000  0.56250000  1.0
  Mo6+  Mo43  1  0.78125000  0.37500000  0.56250000  1.0
  Mo6+  Mo44  1  0.28125000  0.87500000  0.06250000  1.0
  Mo6+  Mo45  1  0.78125000  0.87500000  0.06250000  1.0
  Mo6+  Mo46  1  0.28125000  0.37500000  0.06250000  1.0
  Mo6+  Mo47  1  0.78125000  0.37500000  0.06250000  1.0
  Mo6+  Mo48  1  0.21875000  0.62500000  0.43750000  1.0
  Mo6+  Mo49  1  0.71584390  0.62475533  0.43699617  1.0
  Mo6+  Mo50  1  0.21753664  0.12484997  0.43552174  1.0
  Mo6+  Mo51  1  0.72026737  0.12584222  0.43700959  1.0
  Mo6+  Mo52  1  0.21875000  0.62500000  0.93750000  1.0
  Mo6+  Mo53  1  0.71875000  0.62500000  0.93750000  1.0
  Mo6+  Mo54  1  0.21875000  0.12500000  0.93750000  1.0
  Mo6+  Mo55  1  0.71875000  0.12500000  0.93750000  1.0
  Mo6+  Mo56  1  0.46875000  0.62500000  0.43750000  1.0
  Mo6+  Mo57  1  0.97174830  0.62398461  0.43558036  1.0
  Mo6+  Mo58  1  0.46958109  0.12985409  0.44118143  1.0
  Mo6+  Mo59  1  0.96875000  0.12500000  0.43750000  1.0
  Mo6+  Mo60  1  0.46875000  0.62500000  0.93750000  1.0
  Mo6+  Mo61  1  0.96875000  0.62500000  0.93750000  1.0
  Mo6+  Mo62  1  0.46875000  0.12500000  0.93750000  1.0
  Mo6+  Mo63  1  0.96875000  0.12500000  0.93750000  1.0
  O2-  O64  1  0.01595000  0.79100000  0.39995000  1.0
  O2-  O65  1  0.51595000  0.79100000  0.39995000  1.0
  O2-  O66  1  0.01795307  0.29288276  0.40204378  1.0
  O2-  O67  1  0.51595000  0.29100000  0.39995000  1.0
  O2-  O68  1  0.01874966  0.78968602  0.89921837  1.0
  O2-  O69  1  0.51595000  0.79100000  0.89995000  1.0
  O2-  O70  1  0.01595000  0.29100000  0.89995000  1.0
  O2-  O71  1  0.51595000  0.29100000  0.89995000  1.0
  O2-  O72  1  0.26595000  0.79100000  0.39995000  1.0
  O2-  O73  1  0.76595000  0.79100000  0.39995000  1.0
  O2-  O74  1  0.26595000  0.29100000  0.39995000  1.0
  O2-  O75  1  0.76595000  0.29100000  0.39995000  1.0
  O2-  O76  1  0.26595000  0.79100000  0.89995000  1.0
  O2-  O77  1  0.76595000  0.79100000  0.89995000  1.0
  O2-  O78  1  0.26595000  0.29100000  0.89995000  1.0
  O2-  O79  1  0.76310037  0.29130046  0.89927919  1.0
  O2-  O80  1  0.08855000  0.79100000  0.64105000  1.0
  O2-  O81  1  0.58858945  0.79006347  0.63636188  1.0
  O2-  O82  1  0.08735599  0.29095344  0.63983434  1.0
  O2-  O83  1  0.58855000  0.29100000  0.64105000  1.0
  O2-  O84  1  0.08855000  0.79100000  0.14105000  1.0
  O2-  O85  1  0.58855000  0.79100000  0.14105000  1.0
  O2-  O86  1  0.08855000  0.29100000  0.14105000  1.0
  O2-  O87  1  0.58855000  0.29100000  0.14105000  1.0
  O2-  O88  1  0.33855000  0.79100000  0.64105000  1.0
  O2-  O89  1  0.83855000  0.79100000  0.64105000  1.0
  O2-  O90  1  0.33855000  0.29100000  0.64105000  1.0
  O2-  O91  1  0.83855000  0.29100000  0.64105000  1.0
  O2-  O92  1  0.33855000  0.79100000  0.14105000  1.0
  O2-  O93  1  0.83855000  0.79100000  0.14105000  1.0
  O2-  O94  1  0.33855000  0.29100000  0.14105000  1.0
  O2-  O95  1  0.83855000  0.29100000  0.14105000  1.0
  O2-  O96  1  0.04857117  0.54035219  0.32418927  1.0
  O2-  O97  1  0.55002500  0.54100000  0.32290000  1.0
  O2-  O98  1  0.05002500  0.04100000  0.32290000  1.0
  O2-  O99  1  0.55002500  0.04100000  0.32290000  1.0
  O2-  O100  1  0.05002500  0.54100000  0.82290000  1.0
  O2-  O101  1  0.55002500  0.54100000  0.82290000  1.0
  O2-  O102  1  0.05002500  0.04100000  0.82290000  1.0
  O2-  O103  1  0.55002500  0.04100000  0.82290000  1.0
  O2-  O104  1  0.30002500  0.54100000  0.32290000  1.0
  O2-  O105  1  0.80002500  0.54100000  0.32290000  1.0
  O2-  O106  1  0.30002500  0.04100000  0.32290000  1.0
  O2-  O107  1  0.80002500  0.04100000  0.32290000  1.0
  O2-  O108  1  0.30185881  0.53568036  0.82596141  1.0
  O2-  O109  1  0.80002500  0.54100000  0.82290000  1.0
  O2-  O110  1  0.30002500  0.04100000  0.82290000  1.0
  O2-  O111  1  0.80002500  0.04100000  0.82290000  1.0
  O2-  O112  1  0.17653622  0.53764547  0.47299121  1.0
  O2-  O113  1  0.67947500  0.54100000  0.46810000  1.0
  O2-  O114  1  0.17947500  0.04100000  0.46810000  1.0
  O2-  O115  1  0.67947500  0.04100000  0.46810000  1.0
  O2-  O116  1  0.17947500  0.54100000  0.96810000  1.0
  O2-  O117  1  0.67812560  0.54021898  0.96890603  1.0
  O2-  O118  1  0.17971072  0.03691919  0.96650246  1.0
  O2-  O119  1  0.67790891  0.04307682  0.96702966  1.0
  O2-  O120  1  0.42947500  0.54100000  0.46810000  1.0
  O2-  O121  1  0.93408293  0.54128294  0.47222904  1.0
  O2-  O122  1  0.42947500  0.04100000  0.46810000  1.0
  O2-  O123  1  0.92947500  0.04100000  0.46810000  1.0
  O2-  O124  1  0.43037065  0.53596124  0.96886204  1.0
  O2-  O125  1  0.92947500  0.54100000  0.96810000  1.0
  O2-  O126  1  0.42947500  0.04100000  0.96810000  1.0
  O2-  O127  1  0.92947500  0.04100000  0.96810000  1.0
  O2-  O128  1  0.23405000  0.70900000  0.60005000  1.0
  O2-  O129  1  0.73405000  0.70900000  0.60005000  1.0
  O2-  O130  1  0.23405000  0.20900000  0.60005000  1.0
  O2-  O131  1  0.73405000  0.20900000  0.60005000  1.0
  O2-  O132  1  0.23405000  0.70900000  0.10005000  1.0
  O2-  O133  1  0.73405000  0.70900000  0.10005000  1.0
  O2-  O134  1  0.23405000  0.20900000  0.10005000  1.0
  O2-  O135  1  0.73464689  0.20940530  0.09950747  1.0
  O2-  O136  1  0.48405000  0.70900000  0.60005000  1.0
  O2-  O137  1  0.98405000  0.70900000  0.60005000  1.0
  O2-  O138  1  0.48405000  0.20900000  0.60005000  1.0
  O2-  O139  1  0.98405000  0.20900000  0.60005000  1.0
  O2-  O140  1  0.48405000  0.70900000  0.10005000  1.0
  O2-  O141  1  0.98833919  0.70867870  0.09968548  1.0
  O2-  O142  1  0.48382556  0.21144161  0.09896259  1.0
  O2-  O143  1  0.98405000  0.20900000  0.10005000  1.0
  O2-  O144  1  0.16145000  0.70900000  0.35895000  1.0
  O2-  O145  1  0.66145000  0.70900000  0.35895000  1.0
  O2-  O146  1  0.16196588  0.20362168  0.36103455  1.0
  O2-  O147  1  0.66145000  0.20900000  0.35895000  1.0
  O2-  O148  1  0.16008856  0.70874555  0.85723915  1.0
  O2-  O149  1  0.66145000  0.70900000  0.85895000  1.0
  O2-  O150  1  0.16145000  0.20900000  0.85895000  1.0
  O2-  O151  1  0.66478875  0.21148455  0.86224992  1.0
  O2-  O152  1  0.41225557  0.70832423  0.35591526  1.0
  O2-  O153  1  0.91385699  0.71061679  0.36076098  1.0
  O2-  O154  1  0.41145000  0.20900000  0.35895000  1.0
  O2-  O155  1  0.91145000  0.20900000  0.35895000  1.0
  O2-  O156  1  0.41754372  0.70719413  0.85903139  1.0
  O2-  O157  1  0.91145000  0.70900000  0.85895000  1.0
  O2-  O158  1  0.41145000  0.20900000  0.85895000  1.0
  O2-  O159  1  0.91145000  0.20900000  0.85895000  1.0
  O2-  O160  1  0.20218845  0.95849639  0.67760183  1.0
  O2-  O161  1  0.69997500  0.95900000  0.67710000  1.0
  O2-  O162  1  0.19734389  0.46108028  0.67647633  1.0
  O2-  O163  1  0.69997500  0.45900000  0.67710000  1.0
  O2-  O164  1  0.20341040  0.95966921  0.17886700  1.0
  O2-  O165  1  0.69997500  0.95900000  0.17710000  1.0
  O2-  O166  1  0.19997500  0.45900000  0.17710000  1.0
  O2-  O167  1  0.69997500  0.45900000  0.17710000  1.0
  O2-  O168  1  0.44997500  0.95900000  0.67710000  1.0
  O2-  O169  1  0.95447624  0.95910108  0.67512359  1.0
  O2-  O170  1  0.44997500  0.45900000  0.67710000  1.0
  O2-  O171  1  0.94833379  0.45988090  0.67432790  1.0
  O2-  O172  1  0.44997500  0.95900000  0.17710000  1.0
  O2-  O173  1  0.94661025  0.95614746  0.17618394  1.0
  O2-  O174  1  0.44997500  0.45900000  0.17710000  1.0
  O2-  O175  1  0.94997500  0.45900000  0.17710000  1.0
  O2-  O176  1  0.07128103  0.95845114  0.53136516  1.0
  O2-  O177  1  0.57052500  0.95900000  0.53190000  1.0
  O2-  O178  1  0.06837591  0.46078695  0.53054957  1.0
  O2-  O179  1  0.57052500  0.45900000  0.53190000  1.0
  O2-  O180  1  0.07142736  0.95839392  0.02706223  1.0
  O2-  O181  1  0.56845764  0.96027115  0.02961766  1.0
  O2-  O182  1  0.07052500  0.45900000  0.03190000  1.0
  O2-  O183  1  0.57052500  0.45900000  0.03190000  1.0
  O2-  O184  1  0.32052500  0.95900000  0.53190000  1.0
  O2-  O185  1  0.82052500  0.95900000  0.53190000  1.0
  O2-  O186  1  0.32052500  0.45900000  0.53190000  1.0
  O2-  O187  1  0.82052500  0.45900000  0.53190000  1.0
  O2-  O188  1  0.32052500  0.95900000  0.03190000  1.0
  O2-  O189  1  0.82052500  0.95900000  0.03190000  1.0
  O2-  O190  1  0.32052500  0.45900000  0.03190000  1.0
  O2-  O191  1  0.82052500  0.45900000  0.03190000  1.0
