# generated using pymatgen
data_Li2CePr(MoO4)4
_symmetry_space_group_name_H-M   'P 1'
_cell_length_a   10.49410669
_cell_length_b   20.98821337
_cell_length_c   13.68233745
_cell_angle_alpha   67.44990807
_cell_angle_beta   67.44990807
_cell_angle_gamma   90.00000000
_symmetry_Int_Tables_number   1
_chemical_formula_structural   Li2CePr(MoO4)4
_chemical_formula_sum   'Li16 Ce8 Pr8 Mo32 O128'
_cell_volume   2531.88158080
_cell_formula_units_Z   8
loop_
 _symmetry_equiv_pos_site_id
 _symmetry_equiv_pos_as_xyz
  1  'x, y, z'
loop_
 _atom_type_symbol
 _atom_type_oxidation_number
  Li+  1.0
  Ce3+  3.0
  Pr3+  3.0
  Mo6+  6.0
  O2-  -2.0
loop_
 _atom_site_type_symbol
 _atom_site_label
 _atom_site_symmetry_multiplicity
 _atom_site_fract_x
 _atom_site_fract_y
 _atom_site_fract_z
 _atom_site_occupancy
  Li+  Li0  1  0.06250000  0.51041667  0.12500000  1.0
  Li+  Li1  1  0.06250000  0.01041667  0.12500000  1.0
  Li+  Li2  1  0.06250000  0.26041667  0.62500000  1.0
  Li+  Li3  1  0.06250000  0.76041667  0.62500000  1.0
  Li+  Li4  1  0.43750000  0.57291667  0.37500000  1.0
  Li+  Li5  1  0.43750000  0.07291667  0.37500000  1.0
  Li+  Li6  1  0.43750000  0.57291667  0.87500000  1.0
  Li+  Li7  1  0.43750000  0.07291667  0.87500000  1.0
  Li+  Li8  1  0.93750000  0.32291667  0.37500000  1.0
  Li+  Li9  1  0.93750000  0.82291667  0.37500000  1.0
  Li+  Li10  1  0.93750000  0.32291667  0.87500000  1.0
  Li+  Li11  1  0.93750000  0.82291667  0.87500000  1.0
  Li+  Li12  1  0.43750000  0.32291667  0.37500000  1.0
  Li+  Li13  1  0.43750000  0.82291667  0.37500000  1.0
  Li+  Li14  1  0.43750000  0.32291667  0.87500000  1.0
  Li+  Li15  1  0.43750000  0.82291667  0.87500000  1.0
  Ce3+  Ce16  1  0.56250000  0.51041667  0.62500000  1.0
  Ce3+  Ce17  1  0.56250000  0.01041667  0.62500000  1.0
  Ce3+  Ce18  1  0.06250000  0.51041667  0.62500000  1.0
  Ce3+  Ce19  1  0.06250000  0.01041667  0.62500000  1.0
  Ce3+  Ce20  1  0.93750000  0.57291667  0.37500000  1.0
  Ce3+  Ce21  1  0.93750000  0.07291667  0.37500000  1.0
  Ce3+  Ce22  1  0.93750000  0.57291667  0.87500000  1.0
  Ce3+  Ce23  1  0.93750000  0.07291667  0.87500000  1.0
  Pr3+  Pr24  1  0.56250000  0.51041667  0.12500000  1.0
  Pr3+  Pr25  1  0.56250000  0.01041667  0.12500000  1.0
  Pr3+  Pr26  1  0.56250000  0.26041667  0.12500000  1.0
  Pr3+  Pr27  1  0.56250000  0.76041667  0.12500000  1.0
  Pr3+  Pr28  1  0.56250000  0.26041667  0.62500000  1.0
  Pr3+  Pr29  1  0.56250000  0.76041667  0.62500000  1.0
  Pr3+  Pr30  1  0.06250000  0.26041667  0.12500000  1.0
  Pr3+  Pr31  1  0.06250000  0.76041667  0.12500000  1.0
  Mo6+  Mo32  1  0.81250000  0.63541667  0.12500000  1.0
  Mo6+  Mo33  1  0.81250000  0.13541667  0.12500000  1.0
  Mo6+  Mo34  1  0.81250000  0.63541667  0.62500000  1.0
  Mo6+  Mo35  1  0.81250000  0.13541667  0.62500000  1.0
  Mo6+  Mo36  1  0.31250000  0.63541667  0.12500000  1.0
  Mo6+  Mo37  1  0.31250000  0.13541667  0.12500000  1.0
  Mo6+  Mo38  1  0.31250000  0.63541667  0.62500000  1.0
  Mo6+  Mo39  1  0.31250000  0.13541667  0.62500000  1.0
  Mo6+  Mo40  1  0.81250000  0.38541667  0.12500000  1.0
  Mo6+  Mo41  1  0.81250000  0.88541667  0.12500000  1.0
  Mo6+  Mo42  1  0.81250000  0.38541667  0.62500000  1.0
  Mo6+  Mo43  1  0.81250000  0.88541667  0.62500000  1.0
  Mo6+  Mo44  1  0.31250000  0.38541667  0.12500000  1.0
  Mo6+  Mo45  1  0.31250000  0.88541667  0.12500000  1.0
  Mo6+  Mo46  1  0.31250000  0.38541667  0.62500000  1.0
  Mo6+  Mo47  1  0.31250000  0.88541667  0.62500000  1.0
  Mo6+  Mo48  1  0.68750000  0.44791667  0.37500000  1.0
  Mo6+  Mo49  1  0.68750000  0.94791667  0.37500000  1.0
  Mo6+  Mo50  1  0.68750000  0.44791667  0.87500000  1.0
  Mo6+  Mo51  1  0.68750000  0.94791667  0.87500000  1.0
  Mo6+  Mo52  1  0.18750000  0.44791667  0.37500000  1.0
  Mo6+  Mo53  1  0.18750000  0.94791667  0.37500000  1.0
  Mo6+  Mo54  1  0.18750000  0.44791667  0.87500000  1.0
  Mo6+  Mo55  1  0.18750000  0.94791667  0.87500000  1.0
  Mo6+  Mo56  1  0.68750000  0.19791667  0.37500000  1.0
  Mo6+  Mo57  1  0.68750000  0.69791667  0.37500000  1.0
  Mo6+  Mo58  1  0.68750000  0.19791667  0.87500000  1.0
  Mo6+  Mo59  1  0.68750000  0.69791667  0.87500000  1.0
  Mo6+  Mo60  1  0.18750000  0.19791667  0.37500000  1.0
  Mo6+  Mo61  1  0.18750000  0.69791667  0.37500000  1.0
  Mo6+  Mo62  1  0.18750000  0.19791667  0.87500000  1.0
  Mo6+  Mo63  1  0.18750000  0.69791667  0.87500000  1.0
  O2-  O64  1  0.64995000  0.65071667  0.20900000  1.0
  O2-  O65  1  0.64995000  0.15071667  0.20900000  1.0
  O2-  O66  1  0.64995000  0.65071667  0.70900000  1.0
  O2-  O67  1  0.64995000  0.15071667  0.70900000  1.0
  O2-  O68  1  0.14995000  0.65071667  0.20900000  1.0
  O2-  O69  1  0.14995000  0.15071667  0.20900000  1.0
  O2-  O70  1  0.14995000  0.65071667  0.70900000  1.0
  O2-  O71  1  0.14995000  0.15071667  0.70900000  1.0
  O2-  O72  1  0.64995000  0.40071667  0.20900000  1.0
  O2-  O73  1  0.64995000  0.90071667  0.20900000  1.0
  O2-  O74  1  0.64995000  0.40071667  0.70900000  1.0
  O2-  O75  1  0.64995000  0.90071667  0.70900000  1.0
  O2-  O76  1  0.14995000  0.40071667  0.20900000  1.0
  O2-  O77  1  0.14995000  0.90071667  0.20900000  1.0
  O2-  O78  1  0.14995000  0.40071667  0.70900000  1.0
  O2-  O79  1  0.14995000  0.90071667  0.70900000  1.0
  O2-  O80  1  0.89105000  0.57811667  0.20900000  1.0
  O2-  O81  1  0.89105000  0.07811667  0.20900000  1.0
  O2-  O82  1  0.89105000  0.57811667  0.70900000  1.0
  O2-  O83  1  0.89105000  0.07811667  0.70900000  1.0
  O2-  O84  1  0.39105000  0.57811667  0.20900000  1.0
  O2-  O85  1  0.39105000  0.07811667  0.20900000  1.0
  O2-  O86  1  0.39105000  0.57811667  0.70900000  1.0
  O2-  O87  1  0.39105000  0.07811667  0.70900000  1.0
  O2-  O88  1  0.89105000  0.32811667  0.20900000  1.0
  O2-  O89  1  0.89105000  0.82811667  0.20900000  1.0
  O2-  O90  1  0.89105000  0.32811667  0.70900000  1.0
  O2-  O91  1  0.89105000  0.82811667  0.70900000  1.0
  O2-  O92  1  0.39105000  0.32811667  0.20900000  1.0
  O2-  O93  1  0.39105000  0.82811667  0.20900000  1.0
  O2-  O94  1  0.39105000  0.32811667  0.70900000  1.0
  O2-  O95  1  0.39105000  0.82811667  0.70900000  1.0
  O2-  O96  1  0.57290000  0.61664167  0.45900000  1.0
  O2-  O97  1  0.57290000  0.11664167  0.45900000  1.0
  O2-  O98  1  0.57290000  0.61664167  0.95900000  1.0
  O2-  O99  1  0.57290000  0.11664167  0.95900000  1.0
  O2-  O100  1  0.07290000  0.61664167  0.45900000  1.0
  O2-  O101  1  0.07290000  0.11664167  0.45900000  1.0
  O2-  O102  1  0.07290000  0.61664167  0.95900000  1.0
  O2-  O103  1  0.07290000  0.11664167  0.95900000  1.0
  O2-  O104  1  0.57290000  0.36664167  0.45900000  1.0
  O2-  O105  1  0.57290000  0.86664167  0.45900000  1.0
  O2-  O106  1  0.57290000  0.36664167  0.95900000  1.0
  O2-  O107  1  0.57290000  0.86664167  0.95900000  1.0
  O2-  O108  1  0.07290000  0.36664167  0.45900000  1.0
  O2-  O109  1  0.07290000  0.86664167  0.45900000  1.0
  O2-  O110  1  0.07290000  0.36664167  0.95900000  1.0
  O2-  O111  1  0.07290000  0.86664167  0.95900000  1.0
  O2-  O112  1  0.71810000  0.48719167  0.45900000  1.0
  O2-  O113  1  0.71810000  0.98719167  0.45900000  1.0
  O2-  O114  1  0.71810000  0.48719167  0.95900000  1.0
  O2-  O115  1  0.71810000  0.98719167  0.95900000  1.0
  O2-  O116  1  0.21810000  0.48719167  0.45900000  1.0
  O2-  O117  1  0.21810000  0.98719167  0.45900000  1.0
  O2-  O118  1  0.21810000  0.48719167  0.95900000  1.0
  O2-  O119  1  0.21810000  0.98719167  0.95900000  1.0
  O2-  O120  1  0.71810000  0.23719167  0.45900000  1.0
  O2-  O121  1  0.71810000  0.73719167  0.45900000  1.0
  O2-  O122  1  0.71810000  0.23719167  0.95900000  1.0
  O2-  O123  1  0.71810000  0.73719167  0.95900000  1.0
  O2-  O124  1  0.21810000  0.23719167  0.45900000  1.0
  O2-  O125  1  0.21810000  0.73719167  0.45900000  1.0
  O2-  O126  1  0.21810000  0.23719167  0.95900000  1.0
  O2-  O127  1  0.21810000  0.73719167  0.95900000  1.0
  O2-  O128  1  0.85005000  0.43261667  0.29100000  1.0
  O2-  O129  1  0.85005000  0.93261667  0.29100000  1.0
  O2-  O130  1  0.85005000  0.43261667  0.79100000  1.0
  O2-  O131  1  0.85005000  0.93261667  0.79100000  1.0
  O2-  O132  1  0.35005000  0.43261667  0.29100000  1.0
  O2-  O133  1  0.35005000  0.93261667  0.29100000  1.0
  O2-  O134  1  0.35005000  0.43261667  0.79100000  1.0
  O2-  O135  1  0.35005000  0.93261667  0.79100000  1.0
  O2-  O136  1  0.85005000  0.18261667  0.29100000  1.0
  O2-  O137  1  0.85005000  0.68261667  0.29100000  1.0
  O2-  O138  1  0.85005000  0.18261667  0.79100000  1.0
  O2-  O139  1  0.85005000  0.68261667  0.79100000  1.0
  O2-  O140  1  0.35005000  0.18261667  0.29100000  1.0
  O2-  O141  1  0.35005000  0.68261667  0.29100000  1.0
  O2-  O142  1  0.35005000  0.18261667  0.79100000  1.0
  O2-  O143  1  0.35005000  0.68261667  0.79100000  1.0
  O2-  O144  1  0.60895000  0.50521667  0.29100000  1.0
  O2-  O145  1  0.60895000  0.00521667  0.29100000  1.0
  O2-  O146  1  0.60895000  0.50521667  0.79100000  1.0
  O2-  O147  1  0.60895000  0.00521667  0.79100000  1.0
  O2-  O148  1  0.10895000  0.50521667  0.29100000  1.0
  O2-  O149  1  0.10895000  0.00521667  0.29100000  1.0
  O2-  O150  1  0.10895000  0.50521667  0.79100000  1.0
  O2-  O151  1  0.10895000  0.00521667  0.79100000  1.0
  O2-  O152  1  0.60895000  0.25521667  0.29100000  1.0
  O2-  O153  1  0.60895000  0.75521667  0.29100000  1.0
  O2-  O154  1  0.60895000  0.25521667  0.79100000  1.0
  O2-  O155  1  0.60895000  0.75521667  0.79100000  1.0
  O2-  O156  1  0.10895000  0.25521667  0.29100000  1.0
  O2-  O157  1  0.10895000  0.75521667  0.29100000  1.0
  O2-  O158  1  0.10895000  0.25521667  0.79100000  1.0
  O2-  O159  1  0.10895000  0.75521667  0.79100000  1.0
  O2-  O160  1  0.92710000  0.46669167  0.04100000  1.0
  O2-  O161  1  0.92710000  0.96669167  0.04100000  1.0
  O2-  O162  1  0.92710000  0.46669167  0.54100000  1.0
  O2-  O163  1  0.92710000  0.96669167  0.54100000  1.0
  O2-  O164  1  0.42710000  0.46669167  0.04100000  1.0
  O2-  O165  1  0.42710000  0.96669167  0.04100000  1.0
  O2-  O166  1  0.42710000  0.46669167  0.54100000  1.0
  O2-  O167  1  0.42710000  0.96669167  0.54100000  1.0
  O2-  O168  1  0.92710000  0.21669167  0.04100000  1.0
  O2-  O169  1  0.92710000  0.71669167  0.04100000  1.0
  O2-  O170  1  0.92710000  0.21669167  0.54100000  1.0
  O2-  O171  1  0.92710000  0.71669167  0.54100000  1.0
  O2-  O172  1  0.42710000  0.21669167  0.04100000  1.0
  O2-  O173  1  0.42710000  0.71669167  0.04100000  1.0
  O2-  O174  1  0.42710000  0.21669167  0.54100000  1.0
  O2-  O175  1  0.42710000  0.71669167  0.54100000  1.0
  O2-  O176  1  0.78190000  0.59614167  0.04100000  1.0
  O2-  O177  1  0.78190000  0.09614167  0.04100000  1.0
  O2-  O178  1  0.78190000  0.59614167  0.54100000  1.0
  O2-  O179  1  0.78190000  0.09614167  0.54100000  1.0
  O2-  O180  1  0.28190000  0.59614167  0.04100000  1.0
  O2-  O181  1  0.28190000  0.09614167  0.04100000  1.0
  O2-  O182  1  0.28190000  0.59614167  0.54100000  1.0
  O2-  O183  1  0.28190000  0.09614167  0.54100000  1.0
  O2-  O184  1  0.78190000  0.34614167  0.04100000  1.0
  O2-  O185  1  0.78190000  0.84614167  0.04100000  1.0
  O2-  O186  1  0.78190000  0.34614167  0.54100000  1.0
  O2-  O187  1  0.78190000  0.84614167  0.54100000  1.0
  O2-  O188  1  0.28190000  0.34614167  0.04100000  1.0
  O2-  O189  1  0.28190000  0.84614167  0.04100000  1.0
  O2-  O190  1  0.28190000  0.34614167  0.54100000  1.0
  O2-  O191  1  0.28190000  0.84614167  0.54100000  1.0
