# generated using pymatgen
data_Li2CePr(MoO4)4
_symmetry_space_group_name_H-M   'P 1'
_cell_length_a   21.13600000
_cell_length_b   10.56800000
_cell_length_c   13.77868040
_cell_angle_alpha   112.55009193
_cell_angle_beta   112.55009193
_cell_angle_gamma   90.00000000
_symmetry_Int_Tables_number   1
_chemical_formula_structural   Li2CePr(MoO4)4
_chemical_formula_sum   'Li16 Ce8 Pr8 Mo32 O128'
_cell_volume   2585.74311944
_cell_formula_units_Z   8
loop_
 _symmetry_equiv_pos_site_id
 _symmetry_equiv_pos_as_xyz
  1  'x, y, z'
loop_
 _atom_type_symbol
 _atom_type_oxidation_number
  Li+  1.0
  Ce3+  3.0
  Pr3+  3.0
  Mo6+  6.0
  O2-  -2.0
loop_
 _atom_site_type_symbol
 _atom_site_label
 _atom_site_symmetry_multiplicity
 _atom_site_fract_x
 _atom_site_fract_y
 _atom_site_fract_z
 _atom_site_occupancy
  Li+  Li0  1  0.15625000  0.93750000  0.12500000  1.0
  Li+  Li0  1  0.65625000  0.93750000  0.12500000  1.0
  Li+  Li1  1  0.40625000  0.93750000  0.62500000  1.0
  Li+  Li1  1  0.90625000  0.93750000  0.62500000  1.0
  Li+  Li2  1  0.09375000  0.56250000  0.37500000  1.0
  Li+  Li2  1  0.59375000  0.56250000  0.37500000  1.0
  Li+  Li3  1  0.09375000  0.56250000  0.87500000  1.0
  Li+  Li3  1  0.59375000  0.56250000  0.87500000  1.0
  Li+  Li4  1  0.34375000  0.06250000  0.37500000  1.0
  Li+  Li4  1  0.84375000  0.06250000  0.37500000  1.0
  Li+  Li5  1  0.34375000  0.06250000  0.87500000  1.0
  Li+  Li5  1  0.84375000  0.06250000  0.87500000  1.0
  Li+  Li6  1  0.34375000  0.56250000  0.37500000  1.0
  Li+  Li6  1  0.84375000  0.56250000  0.37500000  1.0
  Li+  Li7  1  0.34375000  0.56250000  0.87500000  1.0
  Li+  Li7  1  0.84375000  0.56250000  0.87500000  1.0
  Ce3+  Ce8  1  0.15625000  0.43750000  0.62500000  1.0
  Ce3+  Ce8  1  0.65625000  0.43750000  0.62500000  1.0
  Ce3+  Ce9  1  0.15625000  0.93750000  0.62500000  1.0
  Ce3+  Ce9  1  0.65625000  0.93750000  0.62500000  1.0
  Ce3+  Ce10  1  0.09375000  0.06250000  0.37500000  1.0
  Ce3+  Ce10  1  0.59375000  0.06250000  0.37500000  1.0
  Ce3+  Ce11  1  0.09375000  0.06250000  0.87500000  1.0
  Ce3+  Ce11  1  0.59375000  0.06250000  0.87500000  1.0
  Pr3+  Pr12  1  0.15625000  0.43750000  0.12500000  1.0
  Pr3+  Pr12  1  0.65625000  0.43750000  0.12500000  1.0
  Pr3+  Pr13  1  0.40625000  0.43750000  0.12500000  1.0
  Pr3+  Pr13  1  0.90625000  0.43750000  0.12500000  1.0
  Pr3+  Pr14  1  0.40625000  0.43750000  0.62500000  1.0
  Pr3+  Pr14  1  0.90625000  0.43750000  0.62500000  1.0
  Pr3+  Pr15  1  0.40625000  0.93750000  0.12500000  1.0
  Pr3+  Pr15  1  0.90625000  0.93750000  0.12500000  1.0
  Mo6+  Mo1  1  0.03125000  0.18750000  0.12500000  1.0
  Mo6+  Mo1  1  0.53125000  0.18750000  0.12500000  1.0
  Mo6+  Mo1  1  0.03125000  0.18750000  0.62500000  1.0
  Mo6+  Mo1  1  0.53125000  0.18750000  0.62500000  1.0
  Mo6+  Mo1  1  0.03125000  0.68750000  0.12500000  1.0
  Mo6+  Mo1  1  0.53125000  0.68750000  0.12500000  1.0
  Mo6+  Mo1  1  0.03125000  0.68750000  0.62500000  1.0
  Mo6+  Mo1  1  0.53125000  0.68750000  0.62500000  1.0
  Mo6+  Mo1  1  0.28125000  0.18750000  0.12500000  1.0
  Mo6+  Mo1  1  0.78125000  0.18750000  0.12500000  1.0
  Mo6+  Mo1  1  0.28125000  0.18750000  0.62500000  1.0
  Mo6+  Mo1  1  0.78125000  0.18750000  0.62500000  1.0
  Mo6+  Mo1  1  0.28125000  0.68750000  0.12500000  1.0
  Mo6+  Mo1  1  0.78125000  0.68750000  0.12500000  1.0
  Mo6+  Mo1  1  0.28125000  0.68750000  0.62500000  1.0
  Mo6+  Mo1  1  0.78125000  0.68750000  0.62500000  1.0
  Mo6+  Mo1  1  0.21875000  0.31250000  0.37500000  1.0
  Mo6+  Mo1  1  0.71875000  0.31250000  0.37500000  1.0
  Mo6+  Mo1  1  0.21875000  0.31250000  0.87500000  1.0
  Mo6+  Mo1  1  0.71875000  0.31250000  0.87500000  1.0
  Mo6+  Mo1  1  0.21875000  0.81250000  0.37500000  1.0
  Mo6+  Mo1  1  0.71875000  0.81250000  0.37500000  1.0
  Mo6+  Mo1  1  0.21875000  0.81250000  0.87500000  1.0
  Mo6+  Mo1  1  0.71875000  0.81250000  0.87500000  1.0
  Mo6+  Mo1  1  0.46875000  0.31250000  0.37500000  1.0
  Mo6+  Mo1  1  0.96875000  0.31250000  0.37500000  1.0
  Mo6+  Mo1  1  0.46875000  0.31250000  0.87500000  1.0
  Mo6+  Mo1  1  0.96875000  0.31250000  0.87500000  1.0
  Mo6+  Mo1  1  0.46875000  0.81250000  0.37500000  1.0
  Mo6+  Mo1  1  0.96875000  0.81250000  0.37500000  1.0
  Mo6+  Mo1  1  0.46875000  0.81250000  0.87500000  1.0
  Mo6+  Mo1  1  0.96875000  0.81250000  0.87500000  1.0
  O2-  O1  1  0.01595000  0.35005000  0.20900000  1.0
  O2-  O1  1  0.51595000  0.35005000  0.20900000  1.0
  O2-  O1  1  0.01595000  0.35005000  0.70900000  1.0
  O2-  O1  1  0.51595000  0.35005000  0.70900000  1.0
  O2-  O1  1  0.01595000  0.85005000  0.20900000  1.0
  O2-  O1  1  0.51595000  0.85005000  0.20900000  1.0
  O2-  O1  1  0.01595000  0.85005000  0.70900000  1.0
  O2-  O1  1  0.51595000  0.85005000  0.70900000  1.0
  O2-  O1  1  0.26595000  0.35005000  0.20900000  1.0
  O2-  O1  1  0.76595000  0.35005000  0.20900000  1.0
  O2-  O1  1  0.26595000  0.35005000  0.70900000  1.0
  O2-  O1  1  0.76595000  0.35005000  0.70900000  1.0
  O2-  O1  1  0.26595000  0.85005000  0.20900000  1.0
  O2-  O1  1  0.76595000  0.85005000  0.20900000  1.0
  O2-  O1  1  0.26595000  0.85005000  0.70900000  1.0
  O2-  O1  1  0.76595000  0.85005000  0.70900000  1.0
  O2-  O1  1  0.08855000  0.10895000  0.20900000  1.0
  O2-  O1  1  0.58855000  0.10895000  0.20900000  1.0
  O2-  O1  1  0.08855000  0.10895000  0.70900000  1.0
  O2-  O1  1  0.58855000  0.10895000  0.70900000  1.0
  O2-  O1  1  0.08855000  0.60895000  0.20900000  1.0
  O2-  O1  1  0.58855000  0.60895000  0.20900000  1.0
  O2-  O1  1  0.08855000  0.60895000  0.70900000  1.0
  O2-  O1  1  0.58855000  0.60895000  0.70900000  1.0
  O2-  O1  1  0.33855000  0.10895000  0.20900000  1.0
  O2-  O1  1  0.83855000  0.10895000  0.20900000  1.0
  O2-  O1  1  0.33855000  0.10895000  0.70900000  1.0
  O2-  O1  1  0.83855000  0.10895000  0.70900000  1.0
  O2-  O1  1  0.33855000  0.60895000  0.20900000  1.0
  O2-  O1  1  0.83855000  0.60895000  0.20900000  1.0
  O2-  O1  1  0.33855000  0.60895000  0.70900000  1.0
  O2-  O1  1  0.83855000  0.60895000  0.70900000  1.0
  O2-  O1  1  0.05002500  0.42710000  0.45900000  1.0
  O2-  O1  1  0.55002500  0.42710000  0.45900000  1.0
  O2-  O1  1  0.05002500  0.42710000  0.95900000  1.0
  O2-  O1  1  0.55002500  0.42710000  0.95900000  1.0
  O2-  O1  1  0.05002500  0.92710000  0.45900000  1.0
  O2-  O1  1  0.55002500  0.92710000  0.45900000  1.0
  O2-  O1  1  0.05002500  0.92710000  0.95900000  1.0
  O2-  O1  1  0.55002500  0.92710000  0.95900000  1.0
  O2-  O1  1  0.30002500  0.42710000  0.45900000  1.0
  O2-  O1  1  0.80002500  0.42710000  0.45900000  1.0
  O2-  O1  1  0.30002500  0.42710000  0.95900000  1.0
  O2-  O1  1  0.80002500  0.42710000  0.95900000  1.0
  O2-  O1  1  0.30002500  0.92710000  0.45900000  1.0
  O2-  O1  1  0.80002500  0.92710000  0.45900000  1.0
  O2-  O1  1  0.30002500  0.92710000  0.95900000  1.0
  O2-  O1  1  0.80002500  0.92710000  0.95900000  1.0
  O2-  O1  1  0.17947500  0.28190000  0.45900000  1.0
  O2-  O1  1  0.67947500  0.28190000  0.45900000  1.0
  O2-  O1  1  0.17947500  0.28190000  0.95900000  1.0
  O2-  O1  1  0.67947500  0.28190000  0.95900000  1.0
  O2-  O1  1  0.17947500  0.78190000  0.45900000  1.0
  O2-  O1  1  0.67947500  0.78190000  0.45900000  1.0
  O2-  O1  1  0.17947500  0.78190000  0.95900000  1.0
  O2-  O1  1  0.67947500  0.78190000  0.95900000  1.0
  O2-  O1  1  0.42947500  0.28190000  0.45900000  1.0
  O2-  O1  1  0.92947500  0.28190000  0.45900000  1.0
  O2-  O1  1  0.42947500  0.28190000  0.95900000  1.0
  O2-  O1  1  0.92947500  0.28190000  0.95900000  1.0
  O2-  O1  1  0.42947500  0.78190000  0.45900000  1.0
  O2-  O1  1  0.92947500  0.78190000  0.45900000  1.0
  O2-  O1  1  0.42947500  0.78190000  0.95900000  1.0
  O2-  O1  1  0.92947500  0.78190000  0.95900000  1.0
  O2-  O1  1  0.23405000  0.14995000  0.29100000  1.0
  O2-  O1  1  0.73405000  0.14995000  0.29100000  1.0
  O2-  O1  1  0.23405000  0.14995000  0.79100000  1.0
  O2-  O1  1  0.73405000  0.14995000  0.79100000  1.0
  O2-  O1  1  0.23405000  0.64995000  0.29100000  1.0
  O2-  O1  1  0.73405000  0.64995000  0.29100000  1.0
  O2-  O1  1  0.23405000  0.64995000  0.79100000  1.0
  O2-  O1  1  0.73405000  0.64995000  0.79100000  1.0
  O2-  O1  1  0.48405000  0.14995000  0.29100000  1.0
  O2-  O1  1  0.98405000  0.14995000  0.29100000  1.0
  O2-  O1  1  0.48405000  0.14995000  0.79100000  1.0
  O2-  O1  1  0.98405000  0.14995000  0.79100000  1.0
  O2-  O1  1  0.48405000  0.64995000  0.29100000  1.0
  O2-  O1  1  0.98405000  0.64995000  0.29100000  1.0
  O2-  O1  1  0.48405000  0.64995000  0.79100000  1.0
  O2-  O1  1  0.98405000  0.64995000  0.79100000  1.0
  O2-  O1  1  0.16145000  0.39105000  0.29100000  1.0
  O2-  O1  1  0.66145000  0.39105000  0.29100000  1.0
  O2-  O1  1  0.16145000  0.39105000  0.79100000  1.0
  O2-  O1  1  0.66145000  0.39105000  0.79100000  1.0
  O2-  O1  1  0.16145000  0.89105000  0.29100000  1.0
  O2-  O1  1  0.66145000  0.89105000  0.29100000  1.0
  O2-  O1  1  0.16145000  0.89105000  0.79100000  1.0
  O2-  O1  1  0.66145000  0.89105000  0.79100000  1.0
  O2-  O1  1  0.41145000  0.39105000  0.29100000  1.0
  O2-  O1  1  0.91145000  0.39105000  0.29100000  1.0
  O2-  O1  1  0.41145000  0.39105000  0.79100000  1.0
  O2-  O1  1  0.91145000  0.39105000  0.79100000  1.0
  O2-  O1  1  0.41145000  0.89105000  0.29100000  1.0
  O2-  O1  1  0.91145000  0.89105000  0.29100000  1.0
  O2-  O1  1  0.41145000  0.89105000  0.79100000  1.0
  O2-  O1  1  0.91145000  0.89105000  0.79100000  1.0
  O2-  O1  1  0.19997500  0.07290000  0.04100000  1.0
  O2-  O1  1  0.69997500  0.07290000  0.04100000  1.0
  O2-  O1  1  0.19997500  0.07290000  0.54100000  1.0
  O2-  O1  1  0.69997500  0.07290000  0.54100000  1.0
  O2-  O1  1  0.19997500  0.57290000  0.04100000  1.0
  O2-  O1  1  0.69997500  0.57290000  0.04100000  1.0
  O2-  O1  1  0.19997500  0.57290000  0.54100000  1.0
  O2-  O1  1  0.69997500  0.57290000  0.54100000  1.0
  O2-  O1  1  0.44997500  0.07290000  0.04100000  1.0
  O2-  O1  1  0.94997500  0.07290000  0.04100000  1.0
  O2-  O1  1  0.44997500  0.07290000  0.54100000  1.0
  O2-  O1  1  0.94997500  0.07290000  0.54100000  1.0
  O2-  O1  1  0.44997500  0.57290000  0.04100000  1.0
  O2-  O1  1  0.94997500  0.57290000  0.04100000  1.0
  O2-  O1  1  0.44997500  0.57290000  0.54100000  1.0
  O2-  O1  1  0.94997500  0.57290000  0.54100000  1.0
  O2-  O1  1  0.07052500  0.21810000  0.04100000  1.0
  O2-  O1  1  0.57052500  0.21810000  0.04100000  1.0
  O2-  O1  1  0.07052500  0.21810000  0.54100000  1.0
  O2-  O1  1  0.57052500  0.21810000  0.54100000  1.0
  O2-  O1  1  0.07052500  0.71810000  0.04100000  1.0
  O2-  O1  1  0.57052500  0.71810000  0.04100000  1.0
  O2-  O1  1  0.07052500  0.71810000  0.54100000  1.0
  O2-  O1  1  0.57052500  0.71810000  0.54100000  1.0
  O2-  O1  1  0.32052500  0.21810000  0.04100000  1.0
  O2-  O1  1  0.82052500  0.21810000  0.04100000  1.0
  O2-  O1  1  0.32052500  0.21810000  0.54100000  1.0
  O2-  O1  1  0.82052500  0.21810000  0.54100000  1.0
  O2-  O1  1  0.32052500  0.71810000  0.04100000  1.0
  O2-  O1  1  0.82052500  0.71810000  0.04100000  1.0
  O2-  O1  1  0.32052500  0.71810000  0.54100000  1.0
  O2-  O1  1  0.82052500  0.71810000  0.54100000  1.0
