# generated using pymatgen
data_Li2HfCl6
_symmetry_space_group_name_H-M   'P 1'
_cell_length_a   12.60472200
_cell_length_b   23.74096000
_cell_length_c   12.60472200
_cell_angle_alpha   90.00000000
_cell_angle_beta   60.00000000
_cell_angle_gamma   90.00000000
_symmetry_Int_Tables_number   1
_chemical_formula_structural   Li2HfCl6
_chemical_formula_sum   'Li32 Hf16 Cl96'
_cell_volume   3266.59619086
_cell_formula_units_Z   16
loop_
 _symmetry_equiv_pos_site_id
 _symmetry_equiv_pos_as_xyz
  1  'x, y, z'
loop_
 _atom_type_symbol
 _atom_type_oxidation_number
  Li+  1.0
  Hf4+  4.0
  Cl-  -1.0
loop_
 _atom_site_type_symbol
 _atom_site_label
 _atom_site_symmetry_multiplicity
 _atom_site_fract_x
 _atom_site_fract_y
 _atom_site_fract_z
 _atom_site_occupancy
  Li+  Li0  1  0.00000000  0.62500000  0.75000000  1.0
  Li+  Li1  1  0.00000000  0.12500000  0.75000000  1.0
  Li+  Li2  1  0.00193041  0.62579488  0.25175751  1.0
  Li+  Li3  1  0.00172841  0.12564185  0.25146485  1.0
  Li+  Li4  1  0.50214987  0.62784227  0.75592537  1.0
  Li+  Li5  1  0.50002210  0.12458789  0.74139368  1.0
  Li+  Li6  1  0.50000000  0.62500000  0.25000000  1.0
  Li+  Li7  1  0.49865368  0.12432233  0.24778086  1.0
  Li+  Li8  1  0.99964743  0.87426012  0.74726160  1.0
  Li+  Li9  1  0.00000000  0.37500000  0.75000000  1.0
  Li+  Li10  1  0.00000000  0.87500000  0.25000000  1.0
  Li+  Li11  1  0.99947609  0.37404751  0.25403099  1.0
  Li+  Li12  1  0.50000000  0.87500000  0.75000000  1.0
  Li+  Li13  1  0.50000000  0.37500000  0.75000000  1.0
  Li+  Li14  1  0.50000000  0.87500000  0.25000000  1.0
  Li+  Li15  1  0.50077996  0.37504469  0.24828361  1.0
  Li+  Li16  1  0.33333333  0.87500000  0.58333333  1.0
  Li+  Li17  1  0.33333333  0.37500000  0.58333333  1.0
  Li+  Li18  1  0.33333333  0.87500000  0.08333333  1.0
  Li+  Li19  1  0.33333333  0.37500000  0.08333333  1.0
  Li+  Li20  1  0.83333333  0.87500000  0.58333333  1.0
  Li+  Li21  1  0.82843371  0.37590698  0.58223737  1.0
  Li+  Li22  1  0.83335183  0.86952340  0.08426899  1.0
  Li+  Li23  1  0.83333333  0.37500000  0.08333333  1.0
  Li+  Li24  1  0.16446029  0.62969377  0.41924249  1.0
  Li+  Li25  1  0.16666667  0.12500000  0.41666667  1.0
  Li+  Li26  1  0.16666667  0.62500000  0.91666667  1.0
  Li+  Li27  1  0.16666667  0.12500000  0.91666667  1.0
  Li+  Li28  1  0.66666667  0.62500000  0.41666667  1.0
  Li+  Li29  1  0.66666667  0.12500000  0.41666667  1.0
  Li+  Li30  1  0.66666667  0.62500000  0.91666667  1.0
  Li+  Li31  1  0.66666667  0.12500000  0.91666667  1.0
  Hf4+  Hf32  1  0.16666667  0.87500000  0.41666667  1.0
  Hf4+  Hf33  1  0.16666667  0.37500000  0.41666667  1.0
  Hf4+  Hf34  1  0.16573812  0.87089265  0.92042295  1.0
  Hf4+  Hf35  1  0.16755344  0.37531471  0.91878137  1.0
  Hf4+  Hf36  1  0.66894688  0.87559428  0.41487450  1.0
  Hf4+  Hf37  1  0.66666667  0.37500000  0.41666667  1.0
  Hf4+  Hf38  1  0.66648897  0.87460533  0.91806149  1.0
  Hf4+  Hf39  1  0.66674759  0.37380095  0.91720302  1.0
  Hf4+  Hf40  1  0.33333333  0.62500000  0.58333333  1.0
  Hf4+  Hf41  1  0.33333333  0.12500000  0.58333333  1.0
  Hf4+  Hf42  1  0.33333333  0.62500000  0.08333333  1.0
  Hf4+  Hf43  1  0.33333333  0.12500000  0.08333333  1.0
  Hf4+  Hf44  1  0.83298456  0.62377866  0.58676357  1.0
  Hf4+  Hf45  1  0.83201015  0.12349572  0.58096363  1.0
  Hf4+  Hf46  1  0.83333333  0.62500000  0.08333333  1.0
  Hf4+  Hf47  1  0.83333333  0.12500000  0.08333333  1.0
  Cl-  Cl48  1  0.33098126  0.93795060  0.41704164  1.0
  Cl-  Cl49  1  0.32973500  0.43694000  0.41642000  1.0
  Cl-  Cl50  1  0.32973500  0.93694000  0.91642000  1.0
  Cl-  Cl51  1  0.32973500  0.43694000  0.91642000  1.0
  Cl-  Cl52  1  0.83279320  0.93213536  0.41303239  1.0
  Cl-  Cl53  1  0.82973500  0.43694000  0.41642000  1.0
  Cl-  Cl54  1  0.82973500  0.93694000  0.91642000  1.0
  Cl-  Cl55  1  0.82973500  0.43694000  0.91642000  1.0
  Cl-  Cl56  1  0.00384500  0.93694000  0.57973500  1.0
  Cl-  Cl57  1  0.00384500  0.43694000  0.57973500  1.0
  Cl-  Cl58  1  0.00384500  0.93694000  0.07973500  1.0
  Cl-  Cl59  1  0.00384500  0.43694000  0.07973500  1.0
  Cl-  Cl60  1  0.50384500  0.93694000  0.57973500  1.0
  Cl-  Cl61  1  0.50384500  0.43694000  0.57973500  1.0
  Cl-  Cl62  1  0.50384500  0.93694000  0.07973500  1.0
  Cl-  Cl63  1  0.50384500  0.43694000  0.07973500  1.0
  Cl-  Cl64  1  0.16642000  0.93694000  0.25384500  1.0
  Cl-  Cl65  1  0.16642000  0.43694000  0.25384500  1.0
  Cl-  Cl66  1  0.16642000  0.93694000  0.75384500  1.0
  Cl-  Cl67  1  0.16642000  0.43694000  0.75384500  1.0
  Cl-  Cl68  1  0.66642000  0.93694000  0.25384500  1.0
  Cl-  Cl69  1  0.66544722  0.43908288  0.25597243  1.0
  Cl-  Cl70  1  0.66642000  0.93694000  0.75384500  1.0
  Cl-  Cl71  1  0.66231175  0.43720804  0.75529080  1.0
  Cl-  Cl72  1  0.00384500  0.81306000  0.41642000  1.0
  Cl-  Cl73  1  0.00384500  0.31306000  0.41642000  1.0
  Cl-  Cl74  1  0.00384500  0.81306000  0.91642000  1.0
  Cl-  Cl75  1  0.00384500  0.31306000  0.91642000  1.0
  Cl-  Cl76  1  0.50384500  0.81306000  0.41642000  1.0
  Cl-  Cl77  1  0.50384500  0.31306000  0.41642000  1.0
  Cl-  Cl78  1  0.50384500  0.81306000  0.91642000  1.0
  Cl-  Cl79  1  0.50384500  0.31306000  0.91642000  1.0
  Cl-  Cl80  1  0.16642000  0.81306000  0.57973500  1.0
  Cl-  Cl81  1  0.16642000  0.31306000  0.57973500  1.0
  Cl-  Cl82  1  0.16563590  0.81462223  0.08273353  1.0
  Cl-  Cl83  1  0.16642000  0.31306000  0.07973500  1.0
  Cl-  Cl84  1  0.66642000  0.81306000  0.57973500  1.0
  Cl-  Cl85  1  0.66793314  0.31338724  0.58117447  1.0
  Cl-  Cl86  1  0.66642000  0.81306000  0.07973500  1.0
  Cl-  Cl87  1  0.66642000  0.31306000  0.07973500  1.0
  Cl-  Cl88  1  0.32973500  0.81306000  0.25384500  1.0
  Cl-  Cl89  1  0.33307293  0.31337738  0.25451692  1.0
  Cl-  Cl90  1  0.32973500  0.81306000  0.75384500  1.0
  Cl-  Cl91  1  0.32973500  0.31306000  0.75384500  1.0
  Cl-  Cl92  1  0.82973500  0.81306000  0.25384500  1.0
  Cl-  Cl93  1  0.83262141  0.31507374  0.25448587  1.0
  Cl-  Cl94  1  0.83153262  0.81569390  0.75408983  1.0
  Cl-  Cl95  1  0.82973500  0.31306000  0.75384500  1.0
  Cl-  Cl96  1  0.17026500  0.56306000  0.58358000  1.0
  Cl-  Cl97  1  0.17026500  0.06306000  0.58358000  1.0
  Cl-  Cl98  1  0.17026500  0.56306000  0.08358000  1.0
  Cl-  Cl99  1  0.17026500  0.06306000  0.08358000  1.0
  Cl-  Cl100  1  0.67026500  0.56306000  0.58358000  1.0
  Cl-  Cl101  1  0.67026500  0.06306000  0.58358000  1.0
  Cl-  Cl102  1  0.67026500  0.56306000  0.08358000  1.0
  Cl-  Cl103  1  0.66952755  0.06110648  0.08211258  1.0
  Cl-  Cl104  1  0.49615500  0.56306000  0.42026500  1.0
  Cl-  Cl105  1  0.49615500  0.06306000  0.42026500  1.0
  Cl-  Cl106  1  0.49615500  0.56306000  0.92026500  1.0
  Cl-  Cl107  1  0.49615500  0.06306000  0.92026500  1.0
  Cl-  Cl108  1  0.99367534  0.56479920  0.42054001  1.0
  Cl-  Cl109  1  0.99615500  0.06306000  0.42026500  1.0
  Cl-  Cl110  1  0.99615500  0.56306000  0.92026500  1.0
  Cl-  Cl111  1  0.99996833  0.06054103  0.92244190  1.0
  Cl-  Cl112  1  0.33358000  0.56306000  0.74615500  1.0
  Cl-  Cl113  1  0.33358000  0.06306000  0.74615500  1.0
  Cl-  Cl114  1  0.32901404  0.56518819  0.24809216  1.0
  Cl-  Cl115  1  0.33358000  0.06306000  0.24615500  1.0
  Cl-  Cl116  1  0.83399023  0.56476711  0.74631187  1.0
  Cl-  Cl117  1  0.83358000  0.06306000  0.74615500  1.0
  Cl-  Cl118  1  0.83358000  0.56306000  0.24615500  1.0
  Cl-  Cl119  1  0.83358000  0.06306000  0.24615500  1.0
  Cl-  Cl120  1  0.49615500  0.68694000  0.58358000  1.0
  Cl-  Cl121  1  0.49615500  0.18694000  0.58358000  1.0
  Cl-  Cl122  1  0.49789624  0.68410111  0.08331126  1.0
  Cl-  Cl123  1  0.49615500  0.18694000  0.08358000  1.0
  Cl-  Cl124  1  0.99615500  0.68694000  0.58358000  1.0
  Cl-  Cl125  1  0.99615500  0.18694000  0.58358000  1.0
  Cl-  Cl126  1  0.99615500  0.68694000  0.08358000  1.0
  Cl-  Cl127  1  0.99615500  0.18694000  0.08358000  1.0
  Cl-  Cl128  1  0.33358000  0.68694000  0.42026500  1.0
  Cl-  Cl129  1  0.33358000  0.18694000  0.42026500  1.0
  Cl-  Cl130  1  0.33507492  0.68564616  0.92215748  1.0
  Cl-  Cl131  1  0.33358000  0.18694000  0.92026500  1.0
  Cl-  Cl132  1  0.83358000  0.68694000  0.42026500  1.0
  Cl-  Cl133  1  0.83358000  0.18694000  0.42026500  1.0
  Cl-  Cl134  1  0.83358000  0.68694000  0.92026500  1.0
  Cl-  Cl135  1  0.83358000  0.18694000  0.92026500  1.0
  Cl-  Cl136  1  0.17026500  0.68694000  0.74615500  1.0
  Cl-  Cl137  1  0.17026500  0.18694000  0.74615500  1.0
  Cl-  Cl138  1  0.17622577  0.69101223  0.24633890  1.0
  Cl-  Cl139  1  0.17026500  0.18694000  0.24615500  1.0
  Cl-  Cl140  1  0.67026500  0.68694000  0.74615500  1.0
  Cl-  Cl141  1  0.67213378  0.18680060  0.74509810  1.0
  Cl-  Cl142  1  0.67026500  0.68694000  0.24615500  1.0
  Cl-  Cl143  1  0.67026500  0.18694000  0.24615500  1.0
