# generated using pymatgen
data_Li2HfCl6
_symmetry_space_group_name_H-M   'P 1'
_cell_length_a   12.64234440
_cell_length_b   12.64234440
_cell_length_c   23.81182169
_cell_angle_alpha   90.00000000
_cell_angle_beta   90.00000000
_cell_angle_gamma   120.00000000
_symmetry_Int_Tables_number   1
_chemical_formula_structural   Li2HfCl6
_chemical_formula_sum   'Li32 Hf16 Cl96'
_cell_volume   3295.93385711
_cell_formula_units_Z   16
loop_
 _symmetry_equiv_pos_site_id
 _symmetry_equiv_pos_as_xyz
  1  'x, y, z'
loop_
 _atom_type_symbol
 _atom_type_oxidation_number
  Li+  1.0
  Hf4+  4.0
  Cl-  -1.0
loop_
 _atom_site_type_symbol
 _atom_site_label
 _atom_site_symmetry_multiplicity
 _atom_site_fract_x
 _atom_site_fract_y
 _atom_site_fract_z
 _atom_site_occupancy
  Li+  Li0  1  0.00000000  0.66666667  0.37500000  1.0
  Li+  Li1  1  0.00000000  0.66666667  0.87500000  1.0
  Li+  Li2  1  0.50000000  0.66666667  0.37500000  1.0
  Li+  Li3  1  0.50000000  0.66666667  0.87500000  1.0
  Li+  Li4  1  0.00000000  0.16666667  0.37500000  1.0
  Li+  Li5  1  0.00000000  0.16666667  0.87500000  1.0
  Li+  Li6  1  0.50000000  0.16666667  0.37500000  1.0
  Li+  Li7  1  0.50000000  0.16666667  0.87500000  1.0
  Li+  Li8  1  0.00000000  0.66666667  0.12500000  1.0
  Li+  Li9  1  0.00000000  0.66666667  0.62500000  1.0
  Li+  Li10  1  0.50000000  0.66666667  0.12500000  1.0
  Li+  Li11  1  0.50000000  0.66666667  0.62500000  1.0
  Li+  Li12  1  0.00000000  0.16666667  0.12500000  1.0
  Li+  Li13  1  0.00000000  0.16666667  0.62500000  1.0
  Li+  Li14  1  0.50000000  0.16666667  0.12500000  1.0
  Li+  Li15  1  0.50000000  0.16666667  0.62500000  1.0
  Li+  Li16  1  0.83333333  0.33333333  0.12500000  1.0
  Li+  Li17  1  0.83333333  0.33333333  0.62500000  1.0
  Li+  Li18  1  0.33333333  0.33333333  0.12500000  1.0
  Li+  Li19  1  0.33333333  0.33333333  0.62500000  1.0
  Li+  Li20  1  0.83333333  0.83333334  0.12500000  1.0
  Li+  Li21  1  0.83333333  0.83333334  0.62500000  1.0
  Li+  Li22  1  0.33333333  0.83333334  0.12500000  1.0
  Li+  Li23  1  0.33333333  0.83333334  0.62500000  1.0
  Li+  Li24  1  0.66666667  0.50000000  0.37500000  1.0
  Li+  Li25  1  0.66666667  0.50000000  0.87500000  1.0
  Li+  Li26  1  0.16666667  0.50000000  0.37500000  1.0
  Li+  Li27  1  0.16666667  0.50000000  0.87500000  1.0
  Li+  Li28  1  0.66666667  0.00000000  0.37500000  1.0
  Li+  Li29  1  0.66666667  0.00000000  0.87500000  1.0
  Li+  Li30  1  0.16666667  0.00000000  0.37500000  1.0
  Li+  Li31  1  0.16666667  0.00000000  0.87500000  1.0
  Hf4+  Hf32  1  0.66666667  0.50000000  0.12500000  1.0
  Hf4+  Hf33  1  0.66666667  0.50000000  0.62500000  1.0
  Hf4+  Hf34  1  0.16666667  0.50000000  0.12500000  1.0
  Hf4+  Hf35  1  0.16666667  0.50000000  0.62500000  1.0
  Hf4+  Hf36  1  0.66666667  0.00000000  0.12500000  1.0
  Hf4+  Hf37  1  0.66666667  0.00000000  0.62500000  1.0
  Hf4+  Hf38  1  0.16666667  0.00000000  0.12500000  1.0
  Hf4+  Hf39  1  0.16666667  0.00000000  0.62500000  1.0
  Hf4+  Hf40  1  0.83333333  0.33333333  0.37500000  1.0
  Hf4+  Hf41  1  0.83333333  0.33333333  0.87500000  1.0
  Hf4+  Hf42  1  0.33333333  0.33333333  0.37500000  1.0
  Hf4+  Hf43  1  0.33333333  0.33333333  0.87500000  1.0
  Hf4+  Hf44  1  0.83333333  0.83333334  0.37500000  1.0
  Hf4+  Hf45  1  0.83333333  0.83333334  0.87500000  1.0
  Hf4+  Hf46  1  0.33333333  0.83333334  0.37500000  1.0
  Hf4+  Hf47  1  0.33333333  0.83333334  0.87500000  1.0
  Cl-  Cl48  1  0.66642000  0.33693167  0.06306000  1.0
  Cl-  Cl49  1  0.66642000  0.33693167  0.56306000  1.0
  Cl-  Cl50  1  0.16642000  0.33693167  0.06306000  1.0
  Cl-  Cl51  1  0.16642000  0.33693167  0.56306000  1.0
  Cl-  Cl52  1  0.66642000  0.83693167  0.06306000  1.0
  Cl-  Cl53  1  0.66642000  0.83693167  0.56306000  1.0
  Cl-  Cl54  1  0.16642000  0.83693167  0.06306000  1.0
  Cl-  Cl55  1  0.16642000  0.83693167  0.56306000  1.0
  Cl-  Cl56  1  0.82973500  0.66282167  0.06306000  1.0
  Cl-  Cl57  1  0.82973500  0.66282167  0.56306000  1.0
  Cl-  Cl58  1  0.32973500  0.66282167  0.06306000  1.0
  Cl-  Cl59  1  0.32973500  0.66282167  0.56306000  1.0
  Cl-  Cl60  1  0.82973500  0.16282167  0.06306000  1.0
  Cl-  Cl61  1  0.82973500  0.16282167  0.56306000  1.0
  Cl-  Cl62  1  0.32973500  0.16282167  0.06306000  1.0
  Cl-  Cl63  1  0.32973500  0.16282167  0.56306000  1.0
  Cl-  Cl64  1  0.50384500  0.50024667  0.06306000  1.0
  Cl-  Cl65  1  0.50384500  0.50024667  0.56306000  1.0
  Cl-  Cl66  1  0.00384500  0.50024667  0.06306000  1.0
  Cl-  Cl67  1  0.00384500  0.50024667  0.56306000  1.0
  Cl-  Cl68  1  0.50384500  0.00024667  0.06306000  1.0
  Cl-  Cl69  1  0.50384500  0.00024667  0.56306000  1.0
  Cl-  Cl70  1  0.00384500  0.00024667  0.06306000  1.0
  Cl-  Cl71  1  0.00384500  0.00024667  0.56306000  1.0
  Cl-  Cl72  1  0.66642000  0.66282167  0.18694000  1.0
  Cl-  Cl73  1  0.66642000  0.66282167  0.68694000  1.0
  Cl-  Cl74  1  0.16642000  0.66282167  0.18694000  1.0
  Cl-  Cl75  1  0.16642000  0.66282167  0.68694000  1.0
  Cl-  Cl76  1  0.66642000  0.16282167  0.18694000  1.0
  Cl-  Cl77  1  0.66642000  0.16282167  0.68694000  1.0
  Cl-  Cl78  1  0.16642000  0.16282167  0.18694000  1.0
  Cl-  Cl79  1  0.16642000  0.16282167  0.68694000  1.0
  Cl-  Cl80  1  0.82973500  0.50024667  0.18694000  1.0
  Cl-  Cl81  1  0.82973500  0.50024667  0.68694000  1.0
  Cl-  Cl82  1  0.32973500  0.50024667  0.18694000  1.0
  Cl-  Cl83  1  0.32973500  0.50024667  0.68694000  1.0
  Cl-  Cl84  1  0.82973500  0.00024667  0.18694000  1.0
  Cl-  Cl85  1  0.82973500  0.00024667  0.68694000  1.0
  Cl-  Cl86  1  0.32973500  0.00024667  0.18694000  1.0
  Cl-  Cl87  1  0.32973500  0.00024667  0.68694000  1.0
  Cl-  Cl88  1  0.50384500  0.33693167  0.18694000  1.0
  Cl-  Cl89  1  0.50384500  0.33693167  0.68694000  1.0
  Cl-  Cl90  1  0.00384500  0.33693167  0.18694000  1.0
  Cl-  Cl91  1  0.00384500  0.33693167  0.68694000  1.0
  Cl-  Cl92  1  0.50384500  0.83693167  0.18694000  1.0
  Cl-  Cl93  1  0.50384500  0.83693167  0.68694000  1.0
  Cl-  Cl94  1  0.00384500  0.83693167  0.18694000  1.0
  Cl-  Cl95  1  0.00384500  0.83693167  0.68694000  1.0
  Cl-  Cl96  1  0.83358000  0.49640167  0.43694000  1.0
  Cl-  Cl97  1  0.83358000  0.49640167  0.93694000  1.0
  Cl-  Cl98  1  0.33358000  0.49640167  0.43694000  1.0
  Cl-  Cl99  1  0.33358000  0.49640167  0.93694000  1.0
  Cl-  Cl100  1  0.83358000  0.99640167  0.43694000  1.0
  Cl-  Cl101  1  0.83358000  0.99640167  0.93694000  1.0
  Cl-  Cl102  1  0.33358000  0.99640167  0.43694000  1.0
  Cl-  Cl103  1  0.33358000  0.99640167  0.93694000  1.0
  Cl-  Cl104  1  0.67026500  0.17051167  0.43694000  1.0
  Cl-  Cl105  1  0.67026500  0.17051167  0.93694000  1.0
  Cl-  Cl106  1  0.17026500  0.17051167  0.43694000  1.0
  Cl-  Cl107  1  0.17026500  0.17051167  0.93694000  1.0
  Cl-  Cl108  1  0.67026500  0.67051167  0.43694000  1.0
  Cl-  Cl109  1  0.67026500  0.67051167  0.93694000  1.0
  Cl-  Cl110  1  0.17026500  0.67051167  0.43694000  1.0
  Cl-  Cl111  1  0.17026500  0.67051167  0.93694000  1.0
  Cl-  Cl112  1  0.99615500  0.33308667  0.43694000  1.0
  Cl-  Cl113  1  0.99615500  0.33308667  0.93694000  1.0
  Cl-  Cl114  1  0.49615500  0.33308667  0.43694000  1.0
  Cl-  Cl115  1  0.49615500  0.33308667  0.93694000  1.0
  Cl-  Cl116  1  0.99615500  0.83308667  0.43694000  1.0
  Cl-  Cl117  1  0.99615500  0.83308667  0.93694000  1.0
  Cl-  Cl118  1  0.49615500  0.83308667  0.43694000  1.0
  Cl-  Cl119  1  0.49615500  0.83308667  0.93694000  1.0
  Cl-  Cl120  1  0.83358000  0.17051167  0.31306000  1.0
  Cl-  Cl121  1  0.83358000  0.17051167  0.81306000  1.0
  Cl-  Cl122  1  0.33358000  0.17051167  0.31306000  1.0
  Cl-  Cl123  1  0.33358000  0.17051167  0.81306000  1.0
  Cl-  Cl124  1  0.83358000  0.67051167  0.31306000  1.0
  Cl-  Cl125  1  0.83358000  0.67051167  0.81306000  1.0
  Cl-  Cl126  1  0.33358000  0.67051167  0.31306000  1.0
  Cl-  Cl127  1  0.33358000  0.67051167  0.81306000  1.0
  Cl-  Cl128  1  0.67026500  0.33308667  0.31306000  1.0
  Cl-  Cl129  1  0.67026500  0.33308667  0.81306000  1.0
  Cl-  Cl130  1  0.17026500  0.33308667  0.31306000  1.0
  Cl-  Cl131  1  0.17026500  0.33308667  0.81306000  1.0
  Cl-  Cl132  1  0.67026500  0.83308667  0.31306000  1.0
  Cl-  Cl133  1  0.67026500  0.83308667  0.81306000  1.0
  Cl-  Cl134  1  0.17026500  0.83308667  0.31306000  1.0
  Cl-  Cl135  1  0.17026500  0.83308667  0.81306000  1.0
  Cl-  Cl136  1  0.99615500  0.49640167  0.31306000  1.0
  Cl-  Cl137  1  0.99615500  0.49640167  0.81306000  1.0
  Cl-  Cl138  1  0.49615500  0.49640167  0.31306000  1.0
  Cl-  Cl139  1  0.49615500  0.49640167  0.81306000  1.0
  Cl-  Cl140  1  0.99615500  0.99640167  0.31306000  1.0
  Cl-  Cl141  1  0.99615500  0.99640167  0.81306000  1.0
  Cl-  Cl142  1  0.49615500  0.99640167  0.31306000  1.0
  Cl-  Cl143  1  0.49615500  0.99640167  0.81306000  1.0
