# generated using pymatgen
data_Li2HfCl6
_symmetry_space_group_name_H-M   'P 1'
_cell_length_a   12.60472200
_cell_length_b   12.60472200
_cell_length_c   23.74096000
_cell_angle_alpha   90.00000000
_cell_angle_beta   90.00000000
_cell_angle_gamma   120.00000000
_symmetry_Int_Tables_number   1
_chemical_formula_structural   Li2HfCl6
_chemical_formula_sum   'Li32 Hf16 Cl96'
_cell_volume   3266.59619086
_cell_formula_units_Z   16
loop_
 _symmetry_equiv_pos_site_id
 _symmetry_equiv_pos_as_xyz
  1  'x, y, z'
loop_
 _atom_type_symbol
 _atom_type_oxidation_number
  Li+  1.0
  Hf4+  4.0
  Cl-  -1.0
loop_
 _atom_site_type_symbol
 _atom_site_label
 _atom_site_symmetry_multiplicity
 _atom_site_fract_x
 _atom_site_fract_y
 _atom_site_fract_z
 _atom_site_occupancy
  Li+  Li3  1  0.00000000  0.00000000  0.37500000  1.0
  Li+  Li3  1  0.00000000  0.00000000  0.87500000  1.0
  Li+  Li3  1  0.00000000  0.50000000  0.37500000  1.0
  Li+  Li3  1  0.00000000  0.50000000  0.87500000  1.0
  Li+  Li3  1  0.50000000  0.00000000  0.37500000  1.0
  Li+  Li3  1  0.50000000  0.00000000  0.87500000  1.0
  Li+  Li3  1  0.50000000  0.50000000  0.37500000  1.0
  Li+  Li3  1  0.50000000  0.50000000  0.87500000  1.0
  Li+  Li3  1  0.00000000  0.00000000  0.12500000  1.0
  Li+  Li3  1  0.00000000  0.00000000  0.62500000  1.0
  Li+  Li3  1  0.00000000  0.50000000  0.12500000  1.0
  Li+  Li3  1  0.00000000  0.50000000  0.62500000  1.0
  Li+  Li3  1  0.50000000  0.00000000  0.12500000  1.0
  Li+  Li3  1  0.50000000  0.00000000  0.62500000  1.0
  Li+  Li3  1  0.50000000  0.50000000  0.12500000  1.0
  Li+  Li3  1  0.50000000  0.50000000  0.62500000  1.0
  Li+  Li4  1  0.33333333  0.16666667  0.12500000  1.0
  Li+  Li4  1  0.33333333  0.16666667  0.62500000  1.0
  Li+  Li4  1  0.33333333  0.66666667  0.12500000  1.0
  Li+  Li4  1  0.33333333  0.66666667  0.62500000  1.0
  Li+  Li4  1  0.83333333  0.16666667  0.12500000  1.0
  Li+  Li4  1  0.83333333  0.16666667  0.62500000  1.0
  Li+  Li4  1  0.83333333  0.66666667  0.12500000  1.0
  Li+  Li4  1  0.83333333  0.66666667  0.62500000  1.0
  Li+  Li4  1  0.16666667  0.33333333  0.37500000  1.0
  Li+  Li4  1  0.16666667  0.33333333  0.87500000  1.0
  Li+  Li4  1  0.16666667  0.83333333  0.37500000  1.0
  Li+  Li4  1  0.16666667  0.83333333  0.87500000  1.0
  Li+  Li4  1  0.66666667  0.33333333  0.37500000  1.0
  Li+  Li4  1  0.66666667  0.33333333  0.87500000  1.0
  Li+  Li4  1  0.66666667  0.83333333  0.37500000  1.0
  Li+  Li4  1  0.66666667  0.83333333  0.87500000  1.0
  Hf4+  Hf2  1  0.16666667  0.33333333  0.12500000  1.0
  Hf4+  Hf2  1  0.16666667  0.33333333  0.62500000  1.0
  Hf4+  Hf2  1  0.16666667  0.83333333  0.12500000  1.0
  Hf4+  Hf2  1  0.16666667  0.83333333  0.62500000  1.0
  Hf4+  Hf2  1  0.66666667  0.33333333  0.12500000  1.0
  Hf4+  Hf2  1  0.66666667  0.33333333  0.62500000  1.0
  Hf4+  Hf2  1  0.66666667  0.83333333  0.12500000  1.0
  Hf4+  Hf2  1  0.66666667  0.83333333  0.62500000  1.0
  Hf4+  Hf2  1  0.33333333  0.16666667  0.37500000  1.0
  Hf4+  Hf2  1  0.33333333  0.16666667  0.87500000  1.0
  Hf4+  Hf2  1  0.33333333  0.66666667  0.37500000  1.0
  Hf4+  Hf2  1  0.33333333  0.66666667  0.87500000  1.0
  Hf4+  Hf2  1  0.83333333  0.16666667  0.37500000  1.0
  Hf4+  Hf2  1  0.83333333  0.16666667  0.87500000  1.0
  Hf4+  Hf2  1  0.83333333  0.66666667  0.37500000  1.0
  Hf4+  Hf2  1  0.83333333  0.66666667  0.87500000  1.0
  Cl-  Cl1  1  0.32973500  0.33358000  0.06306000  1.0
  Cl-  Cl1  1  0.32973500  0.33358000  0.56306000  1.0
  Cl-  Cl1  1  0.32973500  0.83358000  0.06306000  1.0
  Cl-  Cl1  1  0.32973500  0.83358000  0.56306000  1.0
  Cl-  Cl1  1  0.82973500  0.33358000  0.06306000  1.0
  Cl-  Cl1  1  0.82973500  0.33358000  0.56306000  1.0
  Cl-  Cl1  1  0.82973500  0.83358000  0.06306000  1.0
  Cl-  Cl1  1  0.82973500  0.83358000  0.56306000  1.0
  Cl-  Cl1  1  0.00384500  0.17026500  0.06306000  1.0
  Cl-  Cl1  1  0.00384500  0.17026500  0.56306000  1.0
  Cl-  Cl1  1  0.00384500  0.67026500  0.06306000  1.0
  Cl-  Cl1  1  0.00384500  0.67026500  0.56306000  1.0
  Cl-  Cl1  1  0.50384500  0.17026500  0.06306000  1.0
  Cl-  Cl1  1  0.50384500  0.17026500  0.56306000  1.0
  Cl-  Cl1  1  0.50384500  0.67026500  0.06306000  1.0
  Cl-  Cl1  1  0.50384500  0.67026500  0.56306000  1.0
  Cl-  Cl1  1  0.16642000  0.49615500  0.06306000  1.0
  Cl-  Cl1  1  0.16642000  0.49615500  0.56306000  1.0
  Cl-  Cl1  1  0.16642000  0.99615500  0.06306000  1.0
  Cl-  Cl1  1  0.16642000  0.99615500  0.56306000  1.0
  Cl-  Cl1  1  0.66642000  0.49615500  0.06306000  1.0
  Cl-  Cl1  1  0.66642000  0.49615500  0.56306000  1.0
  Cl-  Cl1  1  0.66642000  0.99615500  0.06306000  1.0
  Cl-  Cl1  1  0.66642000  0.99615500  0.56306000  1.0
  Cl-  Cl1  1  0.00384500  0.33358000  0.18694000  1.0
  Cl-  Cl1  1  0.00384500  0.33358000  0.68694000  1.0
  Cl-  Cl1  1  0.00384500  0.83358000  0.18694000  1.0
  Cl-  Cl1  1  0.00384500  0.83358000  0.68694000  1.0
  Cl-  Cl1  1  0.50384500  0.33358000  0.18694000  1.0
  Cl-  Cl1  1  0.50384500  0.33358000  0.68694000  1.0
  Cl-  Cl1  1  0.50384500  0.83358000  0.18694000  1.0
  Cl-  Cl1  1  0.50384500  0.83358000  0.68694000  1.0
  Cl-  Cl1  1  0.16642000  0.17026500  0.18694000  1.0
  Cl-  Cl1  1  0.16642000  0.17026500  0.68694000  1.0
  Cl-  Cl1  1  0.16642000  0.67026500  0.18694000  1.0
  Cl-  Cl1  1  0.16642000  0.67026500  0.68694000  1.0
  Cl-  Cl1  1  0.66642000  0.17026500  0.18694000  1.0
  Cl-  Cl1  1  0.66642000  0.17026500  0.68694000  1.0
  Cl-  Cl1  1  0.66642000  0.67026500  0.18694000  1.0
  Cl-  Cl1  1  0.66642000  0.67026500  0.68694000  1.0
  Cl-  Cl1  1  0.32973500  0.49615500  0.18694000  1.0
  Cl-  Cl1  1  0.32973500  0.49615500  0.68694000  1.0
  Cl-  Cl1  1  0.32973500  0.99615500  0.18694000  1.0
  Cl-  Cl1  1  0.32973500  0.99615500  0.68694000  1.0
  Cl-  Cl1  1  0.82973500  0.49615500  0.18694000  1.0
  Cl-  Cl1  1  0.82973500  0.49615500  0.68694000  1.0
  Cl-  Cl1  1  0.82973500  0.99615500  0.18694000  1.0
  Cl-  Cl1  1  0.82973500  0.99615500  0.68694000  1.0
  Cl-  Cl1  1  0.17026500  0.16642000  0.43694000  1.0
  Cl-  Cl1  1  0.17026500  0.16642000  0.93694000  1.0
  Cl-  Cl1  1  0.17026500  0.66642000  0.43694000  1.0
  Cl-  Cl1  1  0.17026500  0.66642000  0.93694000  1.0
  Cl-  Cl1  1  0.67026500  0.16642000  0.43694000  1.0
  Cl-  Cl1  1  0.67026500  0.16642000  0.93694000  1.0
  Cl-  Cl1  1  0.67026500  0.66642000  0.43694000  1.0
  Cl-  Cl1  1  0.67026500  0.66642000  0.93694000  1.0
  Cl-  Cl1  1  0.49615500  0.32973500  0.43694000  1.0
  Cl-  Cl1  1  0.49615500  0.32973500  0.93694000  1.0
  Cl-  Cl1  1  0.49615500  0.82973500  0.43694000  1.0
  Cl-  Cl1  1  0.49615500  0.82973500  0.93694000  1.0
  Cl-  Cl1  1  0.99615500  0.32973500  0.43694000  1.0
  Cl-  Cl1  1  0.99615500  0.32973500  0.93694000  1.0
  Cl-  Cl1  1  0.99615500  0.82973500  0.43694000  1.0
  Cl-  Cl1  1  0.99615500  0.82973500  0.93694000  1.0
  Cl-  Cl1  1  0.33358000  0.00384500  0.43694000  1.0
  Cl-  Cl1  1  0.33358000  0.00384500  0.93694000  1.0
  Cl-  Cl1  1  0.33358000  0.50384500  0.43694000  1.0
  Cl-  Cl1  1  0.33358000  0.50384500  0.93694000  1.0
  Cl-  Cl1  1  0.83358000  0.00384500  0.43694000  1.0
  Cl-  Cl1  1  0.83358000  0.00384500  0.93694000  1.0
  Cl-  Cl1  1  0.83358000  0.50384500  0.43694000  1.0
  Cl-  Cl1  1  0.83358000  0.50384500  0.93694000  1.0
  Cl-  Cl1  1  0.49615500  0.16642000  0.31306000  1.0
  Cl-  Cl1  1  0.49615500  0.16642000  0.81306000  1.0
  Cl-  Cl1  1  0.49615500  0.66642000  0.31306000  1.0
  Cl-  Cl1  1  0.49615500  0.66642000  0.81306000  1.0
  Cl-  Cl1  1  0.99615500  0.16642000  0.31306000  1.0
  Cl-  Cl1  1  0.99615500  0.16642000  0.81306000  1.0
  Cl-  Cl1  1  0.99615500  0.66642000  0.31306000  1.0
  Cl-  Cl1  1  0.99615500  0.66642000  0.81306000  1.0
  Cl-  Cl1  1  0.33358000  0.32973500  0.31306000  1.0
  Cl-  Cl1  1  0.33358000  0.32973500  0.81306000  1.0
  Cl-  Cl1  1  0.33358000  0.82973500  0.31306000  1.0
  Cl-  Cl1  1  0.33358000  0.82973500  0.81306000  1.0
  Cl-  Cl1  1  0.83358000  0.32973500  0.31306000  1.0
  Cl-  Cl1  1  0.83358000  0.32973500  0.81306000  1.0
  Cl-  Cl1  1  0.83358000  0.82973500  0.31306000  1.0
  Cl-  Cl1  1  0.83358000  0.82973500  0.81306000  1.0
  Cl-  Cl1  1  0.17026500  0.00384500  0.31306000  1.0
  Cl-  Cl1  1  0.17026500  0.00384500  0.81306000  1.0
  Cl-  Cl1  1  0.17026500  0.50384500  0.31306000  1.0
  Cl-  Cl1  1  0.17026500  0.50384500  0.81306000  1.0
  Cl-  Cl1  1  0.67026500  0.00384500  0.31306000  1.0
  Cl-  Cl1  1  0.67026500  0.00384500  0.81306000  1.0
  Cl-  Cl1  1  0.67026500  0.50384500  0.31306000  1.0
  Cl-  Cl1  1  0.67026500  0.50384500  0.81306000  1.0
