# generated using pymatgen
data_LiSn2(PO4)3
_symmetry_space_group_name_H-M   'P 1'
_cell_length_a   16.80580000
_cell_length_b   16.88160000
_cell_length_c   8.88970000
_cell_angle_alpha   118.16000000
_cell_angle_beta   90.18000000
_cell_angle_gamma   119.68100000
_symmetry_Int_Tables_number   1
_chemical_formula_structural   LiSn2(PO4)3
_chemical_formula_sum   'Li8 Sn16 P24 O96'
_cell_volume   1837.15386550
_cell_formula_units_Z   8
loop_
 _symmetry_equiv_pos_site_id
 _symmetry_equiv_pos_as_xyz
  1  'x, y, z'
loop_
 _atom_type_symbol
 _atom_type_oxidation_number
  Li+  1.0
  Sn4+  4.0
  P5+  5.0
  O2-  -2.0
loop_
 _atom_site_type_symbol
 _atom_site_label
 _atom_site_symmetry_multiplicity
 _atom_site_fract_x
 _atom_site_fract_y
 _atom_site_fract_z
 _atom_site_occupancy
  Li+  Li1  1  0.11800000  0.37300000  0.59800000  1.0
  Li+  Li1  1  0.11800000  0.87300000  0.59800000  1.0
  Li+  Li1  1  0.61800000  0.37300000  0.59800000  1.0
  Li+  Li1  1  0.61800000  0.87300000  0.59800000  1.0
  Li+  Li1  1  0.38200000  0.12700000  0.40200000  1.0
  Li+  Li1  1  0.38200000  0.62700000  0.40200000  1.0
  Li+  Li1  1  0.88200000  0.12700000  0.40200000  1.0
  Li+  Li1  1  0.88200000  0.62700000  0.40200000  1.0
  Sn4+  Sn1  1  0.06750000  0.39515000  0.92990000  1.0
  Sn4+  Sn1  1  0.06750000  0.89515000  0.92990000  1.0
  Sn4+  Sn1  1  0.56750000  0.39515000  0.92990000  1.0
  Sn4+  Sn1  1  0.56750000  0.89515000  0.92990000  1.0
  Sn4+  Sn1  1  0.43250000  0.10485000  0.07010000  1.0
  Sn4+  Sn1  1  0.43250000  0.60485000  0.07010000  1.0
  Sn4+  Sn1  1  0.93250000  0.10485000  0.07010000  1.0
  Sn4+  Sn1  1  0.93250000  0.60485000  0.07010000  1.0
  Sn4+  Sn2  1  0.17705000  0.10255000  0.55790000  1.0
  Sn4+  Sn2  1  0.17705000  0.60255000  0.55790000  1.0
  Sn4+  Sn2  1  0.67705000  0.10255000  0.55790000  1.0
  Sn4+  Sn2  1  0.67705000  0.60255000  0.55790000  1.0
  Sn4+  Sn2  1  0.32295000  0.39745000  0.44210000  1.0
  Sn4+  Sn2  1  0.32295000  0.89745000  0.44210000  1.0
  Sn4+  Sn2  1  0.82295000  0.39745000  0.44210000  1.0
  Sn4+  Sn2  1  0.82295000  0.89745000  0.44210000  1.0
  P5+  P1  1  0.02085000  0.00500000  0.75500000  1.0
  P5+  P1  1  0.02085000  0.50500000  0.75500000  1.0
  P5+  P1  1  0.52085000  0.00500000  0.75500000  1.0
  P5+  P1  1  0.52085000  0.50500000  0.75500000  1.0
  P5+  P1  1  0.47915000  0.49500000  0.24500000  1.0
  P5+  P1  1  0.47915000  0.99500000  0.24500000  1.0
  P5+  P1  1  0.97915000  0.49500000  0.24500000  1.0
  P5+  P1  1  0.97915000  0.99500000  0.24500000  1.0
  P5+  P2  1  0.37200000  0.14200000  0.73830000  1.0
  P5+  P2  1  0.37200000  0.64200000  0.73830000  1.0
  P5+  P2  1  0.87200000  0.14200000  0.73830000  1.0
  P5+  P2  1  0.87200000  0.64200000  0.73830000  1.0
  P5+  P2  1  0.12800000  0.35800000  0.26170000  1.0
  P5+  P2  1  0.12800000  0.85800000  0.26170000  1.0
  P5+  P2  1  0.62800000  0.35800000  0.26170000  1.0
  P5+  P2  1  0.62800000  0.85800000  0.26170000  1.0
  P5+  P3  1  0.23060000  0.36100000  0.75270000  1.0
  P5+  P3  1  0.23060000  0.86100000  0.75270000  1.0
  P5+  P3  1  0.73060000  0.36100000  0.75270000  1.0
  P5+  P3  1  0.73060000  0.86100000  0.75270000  1.0
  P5+  P3  1  0.26940000  0.13900000  0.24730000  1.0
  P5+  P3  1  0.26940000  0.63900000  0.24730000  1.0
  P5+  P3  1  0.76940000  0.13900000  0.24730000  1.0
  P5+  P3  1  0.76940000  0.63900000  0.24730000  1.0
  O2-  O1  1  0.08675000  0.07870000  0.69810000  1.0
  O2-  O1  1  0.08675000  0.57870000  0.69810000  1.0
  O2-  O1  1  0.58675000  0.07870000  0.69810000  1.0
  O2-  O1  1  0.58675000  0.57870000  0.69810000  1.0
  O2-  O1  1  0.41325000  0.42130000  0.30190000  1.0
  O2-  O1  1  0.41325000  0.92130000  0.30190000  1.0
  O2-  O1  1  0.91325000  0.42130000  0.30190000  1.0
  O2-  O1  1  0.91325000  0.92130000  0.30190000  1.0
  O2-  O2  1  0.01850000  0.06850000  0.94090000  1.0
  O2-  O2  1  0.01850000  0.56850000  0.94090000  1.0
  O2-  O2  1  0.51850000  0.06850000  0.94090000  1.0
  O2-  O2  1  0.51850000  0.56850000  0.94090000  1.0
  O2-  O2  1  0.48150000  0.43150000  0.05910000  1.0
  O2-  O2  1  0.48150000  0.93150000  0.05910000  1.0
  O2-  O2  1  0.98150000  0.43150000  0.05910000  1.0
  O2-  O2  1  0.98150000  0.93150000  0.05910000  1.0
  O2-  O3  1  0.42035000  0.42505000  0.62710000  1.0
  O2-  O3  1  0.42035000  0.92505000  0.62710000  1.0
  O2-  O3  1  0.92035000  0.42505000  0.62710000  1.0
  O2-  O3  1  0.92035000  0.92505000  0.62710000  1.0
  O2-  O3  1  0.07965000  0.07495000  0.37290000  1.0
  O2-  O3  1  0.07965000  0.57495000  0.37290000  1.0
  O2-  O3  1  0.57965000  0.07495000  0.37290000  1.0
  O2-  O3  1  0.57965000  0.57495000  0.37290000  1.0
  O2-  O4  1  0.05915000  0.43620000  0.75140000  1.0
  O2-  O4  1  0.05915000  0.93620000  0.75140000  1.0
  O2-  O4  1  0.55915000  0.43620000  0.75140000  1.0
  O2-  O4  1  0.55915000  0.93620000  0.75140000  1.0
  O2-  O4  1  0.44085000  0.06380000  0.24860000  1.0
  O2-  O4  1  0.44085000  0.56380000  0.24860000  1.0
  O2-  O4  1  0.94085000  0.06380000  0.24860000  1.0
  O2-  O4  1  0.94085000  0.56380000  0.24860000  1.0
  O2-  O5  1  0.27305000  0.12350000  0.73630000  1.0
  O2-  O5  1  0.27305000  0.62350000  0.73630000  1.0
  O2-  O5  1  0.77305000  0.12350000  0.73630000  1.0
  O2-  O5  1  0.77305000  0.62350000  0.73630000  1.0
  O2-  O5  1  0.22695000  0.37650000  0.26370000  1.0
  O2-  O5  1  0.22695000  0.87650000  0.26370000  1.0
  O2-  O5  1  0.72695000  0.37650000  0.26370000  1.0
  O2-  O5  1  0.72695000  0.87650000  0.26370000  1.0
  O2-  O6  1  0.44315000  0.24800000  0.74840000  1.0
  O2-  O6  1  0.44315000  0.74800000  0.74840000  1.0
  O2-  O6  1  0.94315000  0.24800000  0.74840000  1.0
  O2-  O6  1  0.94315000  0.74800000  0.74840000  1.0
  O2-  O6  1  0.05685000  0.25200000  0.25160000  1.0
  O2-  O6  1  0.05685000  0.75200000  0.25160000  1.0
  O2-  O6  1  0.55685000  0.25200000  0.25160000  1.0
  O2-  O6  1  0.55685000  0.75200000  0.25160000  1.0
  O2-  O7  1  0.37355000  0.05550000  0.56760000  1.0
  O2-  O7  1  0.37355000  0.55550000  0.56760000  1.0
  O2-  O7  1  0.87355000  0.05550000  0.56760000  1.0
  O2-  O7  1  0.87355000  0.55550000  0.56760000  1.0
  O2-  O7  1  0.12645000  0.44450000  0.43240000  1.0
  O2-  O7  1  0.12645000  0.94450000  0.43240000  1.0
  O2-  O7  1  0.62645000  0.44450000  0.43240000  1.0
  O2-  O7  1  0.62645000  0.94450000  0.43240000  1.0
  O2-  O8  1  0.40660000  0.14935000  0.91120000  1.0
  O2-  O8  1  0.40660000  0.64935000  0.91120000  1.0
  O2-  O8  1  0.90660000  0.14935000  0.91120000  1.0
  O2-  O8  1  0.90660000  0.64935000  0.91120000  1.0
  O2-  O8  1  0.09340000  0.35065000  0.08880000  1.0
  O2-  O8  1  0.09340000  0.85065000  0.08880000  1.0
  O2-  O8  1  0.59340000  0.35065000  0.08880000  1.0
  O2-  O8  1  0.59340000  0.85065000  0.08880000  1.0
  O2-  O9  1  0.13350000  0.33200000  0.77260000  1.0
  O2-  O9  1  0.13350000  0.83200000  0.77260000  1.0
  O2-  O9  1  0.63350000  0.33200000  0.77260000  1.0
  O2-  O9  1  0.63350000  0.83200000  0.77260000  1.0
  O2-  O9  1  0.36650000  0.16800000  0.22740000  1.0
  O2-  O9  1  0.36650000  0.66800000  0.22740000  1.0
  O2-  O9  1  0.86650000  0.16800000  0.22740000  1.0
  O2-  O9  1  0.86650000  0.66800000  0.22740000  1.0
  O2-  O10  1  0.31030000  0.45965000  0.92470000  1.0
  O2-  O10  1  0.31030000  0.95965000  0.92470000  1.0
  O2-  O10  1  0.81030000  0.45965000  0.92470000  1.0
  O2-  O10  1  0.81030000  0.95965000  0.92470000  1.0
  O2-  O10  1  0.18970000  0.04035000  0.07530000  1.0
  O2-  O10  1  0.18970000  0.54035000  0.07530000  1.0
  O2-  O10  1  0.68970000  0.04035000  0.07530000  1.0
  O2-  O10  1  0.68970000  0.54035000  0.07530000  1.0
  O2-  O11  1  0.23540000  0.38400000  0.60250000  1.0
  O2-  O11  1  0.23540000  0.88400000  0.60250000  1.0
  O2-  O11  1  0.73540000  0.38400000  0.60250000  1.0
  O2-  O11  1  0.73540000  0.88400000  0.60250000  1.0
  O2-  O11  1  0.26460000  0.11600000  0.39750000  1.0
  O2-  O11  1  0.26460000  0.61600000  0.39750000  1.0
  O2-  O11  1  0.76460000  0.11600000  0.39750000  1.0
  O2-  O11  1  0.76460000  0.61600000  0.39750000  1.0
  O2-  O12  1  0.23920000  0.26325000  0.69140000  1.0
  O2-  O12  1  0.23920000  0.76325000  0.69140000  1.0
  O2-  O12  1  0.73920000  0.26325000  0.69140000  1.0
  O2-  O12  1  0.73920000  0.76325000  0.69140000  1.0
  O2-  O12  1  0.26080000  0.23675000  0.30860000  1.0
  O2-  O12  1  0.26080000  0.73675000  0.30860000  1.0
  O2-  O12  1  0.76080000  0.23675000  0.30860000  1.0
  O2-  O12  1  0.76080000  0.73675000  0.30860000  1.0
