# generated using pymatgen
data_Li30P5Se3S22Br5
_symmetry_space_group_name_H-M   'P 1'
_cell_length_a   7.09204767
_cell_length_b   35.46023835
_cell_length_c   14.18409534
_cell_angle_alpha   60.00000000
_cell_angle_beta   120.00000000
_cell_angle_gamma   120.00000000
_symmetry_Int_Tables_number   1
_chemical_formula_structural   Li30P5Se3S22Br5
_chemical_formula_sum   'Li60 P10 Se6 S44 Br10'
_cell_volume   2522.31858840
_cell_formula_units_Z   2
loop_
 _symmetry_equiv_pos_site_id
 _symmetry_equiv_pos_as_xyz
  1  'x, y, z'
loop_
 _atom_type_symbol
 _atom_type_oxidation_number
  Li+  1.0
  P5+  5.0
  Se2-  -2.0
  S2-  -2.0
  Br-  -1.0
loop_
 _atom_site_type_symbol
 _atom_site_label
 _atom_site_symmetry_multiplicity
 _atom_site_fract_x
 _atom_site_fract_y
 _atom_site_fract_z
 _atom_site_occupancy
  Li+  Li0  1  0.48300000  0.30340000  0.24150000  1.0
  Li+  Li1  1  0.01700000  0.70340000  0.00850000  1.0
  Li+  Li2  1  0.48300000  0.19660000  0.24150000  1.0
  Li+  Li3  1  0.01700000  0.30340000  0.24150000  1.0
  Li+  Li4  1  0.01700000  0.79660000  0.00850000  1.0
  Li+  Li5  1  0.01700000  0.39660000  0.00850000  1.0
  Li+  Li6  1  0.48228529  0.19529104  0.50516280  1.0
  Li+  Li7  1  0.36070000  0.68218000  0.73745000  1.0
  Li+  Li8  1  0.36070000  0.48218000  0.23745000  1.0
  Li+  Li9  1  0.02510000  0.72786000  0.45545000  1.0
  Li+  Li10  1  0.02510000  0.12786000  0.45545000  1.0
  Li+  Li11  1  0.02510000  0.92786000  0.95545000  1.0
  Li+  Li12  1  0.02430576  0.32687767  0.95498638  1.0
  Li+  Li13  1  0.02518678  0.12500945  0.95873711  1.0
  Li+  Li14  1  0.58910000  0.99498000  0.73745000  1.0
  Li+  Li15  1  0.58910000  0.79498000  0.73745000  1.0
  Li+  Li16  1  0.58910000  0.59498000  0.73745000  1.0
  Li+  Li17  1  0.58910000  0.19498000  0.73745000  1.0
  Li+  Li18  1  0.58910000  0.99498000  0.23745000  1.0
  Li+  Li19  1  0.58910000  0.52786000  0.73745000  1.0
  Li+  Li20  1  0.58910000  0.92786000  0.23745000  1.0
  Li+  Li21  1  0.58910000  0.72786000  0.23745000  1.0
  Li+  Li22  1  0.58915759  0.52641641  0.23795163  1.0
  Li+  Li23  1  0.02510000  0.88218000  0.73745000  1.0
  Li+  Li24  1  0.02510000  0.28218000  0.73745000  1.0
  Li+  Li25  1  0.02308297  0.68305629  0.23725707  1.0
  Li+  Li26  1  0.02510000  0.48218000  0.23745000  1.0
  Li+  Li27  1  0.02510000  0.08218000  0.23745000  1.0
  Li+  Li28  1  0.02404331  0.72638672  0.73249486  1.0
  Li+  Li29  1  0.02510000  0.32786000  0.73745000  1.0
  Li+  Li30  1  0.02510000  0.12786000  0.73745000  1.0
  Li+  Li31  1  0.02883342  0.52417971  0.23664820  1.0
  Li+  Li32  1  0.02510000  0.12786000  0.23745000  1.0
  Li+  Li33  1  0.02510000  0.88218000  0.56965000  1.0
  Li+  Li34  1  0.02510000  0.68218000  0.56965000  1.0
  Li+  Li35  1  0.02510000  0.08218000  0.56965000  1.0
  Li+  Li36  1  0.02994741  0.88270501  0.06667722  1.0
  Li+  Li37  1  0.02510000  0.28218000  0.06965000  1.0
  Li+  Li38  1  0.02579016  0.08296859  0.06960196  1.0
  Li+  Li39  1  0.02510000  0.99498000  0.56965000  1.0
  Li+  Li40  1  0.02510000  0.39498000  0.56965000  1.0
  Li+  Li41  1  0.02510000  0.19498000  0.56965000  1.0
  Li+  Li42  1  0.02510000  0.99498000  0.06965000  1.0
  Li+  Li43  1  0.36070000  0.99498000  0.73745000  1.0
  Li+  Li44  1  0.35917748  0.59623658  0.73829290  1.0
  Li+  Li45  1  0.36192378  0.79363430  0.23466455  1.0
  Li+  Li46  1  0.02510000  0.99498000  0.45545000  1.0
  Li+  Li47  1  0.02510000  0.79498000  0.45545000  1.0
  Li+  Li48  1  0.02624237  0.59759673  0.45414902  1.0
  Li+  Li49  1  0.02510000  0.39498000  0.45545000  1.0
  Li+  Li50  1  0.02644292  0.59821832  0.95680477  1.0
  Li+  Li51  1  0.58910000  0.79498000  0.56965000  1.0
  Li+  Li52  1  0.58910000  0.59498000  0.56965000  1.0
  Li+  Li53  1  0.58905153  0.99796944  0.06686332  1.0
  Li+  Li54  1  0.58910000  0.39498000  0.06965000  1.0
  Li+  Li55  1  0.36070000  0.99498000  0.45545000  1.0
  Li+  Li56  1  0.36070000  0.79498000  0.45545000  1.0
  Li+  Li57  1  0.36070000  0.59498000  0.45545000  1.0
  Li+  Li58  1  0.36070000  0.39498000  0.45545000  1.0
  Li+  Li59  1  0.36070000  0.39498000  0.95545000  1.0
  P5+  P60  1  0.50000000  0.90000000  0.50000000  1.0
  P5+  P61  1  0.50000000  0.70000000  0.50000000  1.0
  P5+  P62  1  0.50000000  0.50000000  0.50000000  1.0
  P5+  P63  1  0.50000000  0.30000000  0.50000000  1.0
  P5+  P64  1  0.50000000  0.10000000  0.50000000  1.0
  P5+  P65  1  0.50000000  0.90000000  0.00000000  1.0
  P5+  P66  1  0.49634299  0.70319846  0.00022890  1.0
  P5+  P67  1  0.50264631  0.49597299  0.00384195  1.0
  P5+  P68  1  0.50000000  0.30000000  0.00000000  1.0
  P5+  P69  1  0.50000000  0.10000000  0.00000000  1.0
  Se2-  Se70  1  0.62221740  0.07555652  0.93889130  1.0
  Se2-  Se71  1  0.62221740  0.57333044  0.93889130  1.0
  Se2-  Se72  1  0.25000000  0.95000000  0.62500000  1.0
  Se2-  Se73  1  0.24351605  0.55175515  0.62416055  1.0
  Se2-  Se74  1  0.25000000  0.15000000  0.62500000  1.0
  Se2-  Se75  1  0.25000000  0.35000000  0.12500000  1.0
  S2-  S76  1  0.62221740  0.87555652  0.68332610  1.0
  S2-  S77  1  0.62221740  0.67555652  0.68332610  1.0
  S2-  S78  1  0.62097209  0.47664623  0.68551913  1.0
  S2-  S79  1  0.62221740  0.27555652  0.68332610  1.0
  S2-  S80  1  0.62221740  0.07555652  0.68332610  1.0
  S2-  S81  1  0.61937865  0.87639880  0.18676605  1.0
  S2-  S82  1  0.62221740  0.67555652  0.18332610  1.0
  S2-  S83  1  0.62221740  0.47555652  0.18332610  1.0
  S2-  S84  1  0.62221740  0.27555652  0.18332610  1.0
  S2-  S85  1  0.62221740  0.07555652  0.18332610  1.0
  S2-  S86  1  0.62127638  0.87473227  0.44040001  1.0
  S2-  S87  1  0.62239018  0.67437643  0.43536947  1.0
  S2-  S88  1  0.62221740  0.47555652  0.43889130  1.0
  S2-  S89  1  0.62615414  0.27370680  0.43667597  1.0
  S2-  S90  1  0.62221740  0.07555652  0.43889130  1.0
  S2-  S91  1  0.62221740  0.87555652  0.93889130  1.0
  S2-  S92  1  0.62221740  0.67555652  0.93889130  1.0
  S2-  S93  1  0.62221740  0.47555652  0.93889130  1.0
  S2-  S94  1  0.62221740  0.27555652  0.93889130  1.0
  S2-  S95  1  0.62221740  0.97333044  0.43889130  1.0
  S2-  S96  1  0.62287322  0.77360685  0.43829614  1.0
  S2-  S97  1  0.62221740  0.57333044  0.43889130  1.0
  S2-  S98  1  0.62221740  0.37333044  0.43889130  1.0
  S2-  S99  1  0.62221740  0.17333044  0.43889130  1.0
  S2-  S100  1  0.62221740  0.97333044  0.93889130  1.0
  S2-  S101  1  0.62221740  0.77333044  0.93889130  1.0
  S2-  S102  1  0.62221740  0.37333044  0.93889130  1.0
  S2-  S103  1  0.62221740  0.17333044  0.93889130  1.0
  S2-  S104  1  0.13334780  0.87555652  0.43889130  1.0
  S2-  S105  1  0.13334780  0.67555652  0.43889130  1.0
  S2-  S106  1  0.13334780  0.47555652  0.43889130  1.0
  S2-  S107  1  0.13334780  0.27555652  0.43889130  1.0
  S2-  S108  1  0.13334780  0.07555652  0.43889130  1.0
  S2-  S109  1  0.13584758  0.87113114  0.93520341  1.0
  S2-  S110  1  0.13145770  0.67117089  0.93974440  1.0
  S2-  S111  1  0.13334780  0.47555652  0.93889130  1.0
  S2-  S112  1  0.13334780  0.27555652  0.93889130  1.0
  S2-  S113  1  0.13630727  0.07476284  0.93897819  1.0
  S2-  S114  1  0.24496150  0.75181300  0.62492471  1.0
  S2-  S115  1  0.25000000  0.35000000  0.62500000  1.0
  S2-  S116  1  0.25000000  0.95000000  0.12500000  1.0
  S2-  S117  1  0.25000000  0.75000000  0.12500000  1.0
  S2-  S118  1  0.25000000  0.55000000  0.12500000  1.0
  S2-  S119  1  0.25084534  0.14774794  0.12648854  1.0
  Br-  Br120  1  0.00000000  0.00000000  0.75000000  1.0
  Br-  Br121  1  0.00291773  0.80069160  0.75022215  1.0
  Br-  Br122  1  0.00073133  0.59698259  0.75087313  1.0
  Br-  Br123  1  0.99696634  0.39884856  0.74845000  1.0
  Br-  Br124  1  0.00000000  0.20000000  0.75000000  1.0
  Br-  Br125  1  0.00000000  0.00000000  0.25000000  1.0
  Br-  Br126  1  0.99951722  0.79927799  0.24972556  1.0
  Br-  Br127  1  0.00000000  0.60000000  0.25000000  1.0
  Br-  Br128  1  0.00000000  0.40000000  0.25000000  1.0
  Br-  Br129  1  0.00000000  0.20000000  0.25000000  1.0
