# generated using pymatgen
data_Li6PS5Br
_symmetry_space_group_name_H-M   'P 1'
_cell_length_a   14.12389227
_cell_length_b   21.18583839
_cell_length_c   14.12389227
_cell_angle_alpha   60.00000000
_cell_angle_beta   120.00000000
_cell_angle_gamma   120.00000000
_symmetry_Int_Tables_number   1
_chemical_formula_structural   Li6PS5Br
_chemical_formula_sum   'Li72 P12 S60 Br12'
_cell_volume   2988.40496912
_cell_formula_units_Z   12
loop_
 _symmetry_equiv_pos_site_id
 _symmetry_equiv_pos_as_xyz
  1  'x, y, z'
loop_
 _atom_type_symbol
 _atom_type_oxidation_number
  Li+  1.0
  P5+  5.0
  S2-  -2.0
  Br-  -1.0
loop_
 _atom_site_type_symbol
 _atom_site_label
 _atom_site_symmetry_multiplicity
 _atom_site_fract_x
 _atom_site_fract_y
 _atom_site_fract_z
 _atom_site_occupancy
  Li+  Li0  1  0.74150000  0.83900000  0.74150000  1.0
  Li+  Li1  1  0.74150000  0.50566667  0.74150000  1.0
  Li+  Li2  1  0.74150000  0.17233333  0.74150000  1.0
  Li+  Li3  1  0.24471952  0.99552025  0.23992700  1.0
  Li+  Li4  1  0.24150000  0.66100000  0.24150000  1.0
  Li+  Li5  1  0.24150000  0.32766667  0.24150000  1.0
  Li+  Li6  1  0.74150000  0.99433333  0.00850000  1.0
  Li+  Li7  1  0.74150000  0.66100000  0.00850000  1.0
  Li+  Li8  1  0.74150000  0.32766667  0.00850000  1.0
  Li+  Li9  1  0.01255000  0.99163333  0.56965000  1.0
  Li+  Li10  1  0.01255000  0.65830000  0.56965000  1.0
  Li+  Li11  1  0.00829927  0.32406041  0.56681990  1.0
  Li+  Li12  1  0.51255000  0.99163333  0.56965000  1.0
  Li+  Li13  1  0.51255000  0.65830000  0.56965000  1.0
  Li+  Li14  1  0.51177138  0.32354736  0.56626797  1.0
  Li+  Li15  1  0.51255000  0.99163333  0.06965000  1.0
  Li+  Li16  1  0.51255000  0.65830000  0.06965000  1.0
  Li+  Li17  1  0.51255000  0.32496667  0.06965000  1.0
  Li+  Li18  1  0.01255000  0.80363333  0.73745000  1.0
  Li+  Li19  1  0.00920202  0.47446248  0.74326358  1.0
  Li+  Li20  1  0.01255000  0.13696667  0.73745000  1.0
  Li+  Li21  1  0.01255000  0.80363333  0.06965000  1.0
  Li+  Li22  1  0.01255000  0.47030000  0.06965000  1.0
  Li+  Li23  1  0.01189524  0.13701628  0.06924177  1.0
  Li+  Li24  1  0.51040624  0.80295039  0.57098100  1.0
  Li+  Li25  1  0.51255000  0.47030000  0.56965000  1.0
  Li+  Li26  1  0.51255000  0.13696667  0.56965000  1.0
  Li+  Li27  1  0.51255000  0.80363333  0.06965000  1.0
  Li+  Li28  1  0.51255000  0.47030000  0.06965000  1.0
  Li+  Li29  1  0.51255000  0.13696667  0.06965000  1.0
  Li+  Li30  1  0.01427220  0.87614662  0.73564611  1.0
  Li+  Li31  1  0.01358021  0.54315718  0.73852165  1.0
  Li+  Li32  1  0.01255000  0.21310000  0.73745000  1.0
  Li+  Li33  1  0.01255000  0.87976667  0.23745000  1.0
  Li+  Li34  1  0.01255000  0.54643333  0.23745000  1.0
  Li+  Li35  1  0.01255000  0.21310000  0.23745000  1.0
  Li+  Li36  1  0.51544479  0.88250908  0.23726906  1.0
  Li+  Li37  1  0.51024993  0.54646488  0.23807630  1.0
  Li+  Li38  1  0.51449988  0.21087361  0.24217957  1.0
  Li+  Li39  1  0.01255000  0.99163333  0.45545000  1.0
  Li+  Li40  1  0.01255000  0.65830000  0.45545000  1.0
  Li+  Li41  1  0.01255000  0.32496667  0.45545000  1.0
  Li+  Li42  1  0.00908094  0.99549454  0.95575923  1.0
  Li+  Li43  1  0.01381900  0.66030855  0.95865285  1.0
  Li+  Li44  1  0.01255000  0.32496667  0.95545000  1.0
  Li+  Li45  1  0.51255000  0.99163333  0.45545000  1.0
  Li+  Li46  1  0.51255000  0.65830000  0.45545000  1.0
  Li+  Li47  1  0.51255000  0.32496667  0.45545000  1.0
  Li+  Li48  1  0.18035000  0.80363333  0.23745000  1.0
  Li+  Li49  1  0.18035000  0.47030000  0.23745000  1.0
  Li+  Li50  1  0.18212946  0.13443627  0.24446824  1.0
  Li+  Li51  1  0.18363908  0.99550157  0.73739510  1.0
  Li+  Li52  1  0.18035000  0.65830000  0.73745000  1.0
  Li+  Li53  1  0.18035000  0.32496667  0.73745000  1.0
  Li+  Li54  1  0.68035000  0.99163333  0.73745000  1.0
  Li+  Li55  1  0.68035000  0.65830000  0.73745000  1.0
  Li+  Li56  1  0.68035000  0.32496667  0.73745000  1.0
  Li+  Li57  1  0.29304704  0.88387059  0.73786790  1.0
  Li+  Li58  1  0.29455000  0.54643333  0.73745000  1.0
  Li+  Li59  1  0.29455000  0.21310000  0.73745000  1.0
  Li+  Li60  1  0.29455000  0.99163333  0.06965000  1.0
  Li+  Li61  1  0.29455000  0.65830000  0.06965000  1.0
  Li+  Li62  1  0.29159074  0.32547257  0.07284016  1.0
  Li+  Li63  1  0.79455000  0.99163333  0.56965000  1.0
  Li+  Li64  1  0.79455000  0.65830000  0.56965000  1.0
  Li+  Li65  1  0.79455000  0.32496667  0.56965000  1.0
  Li+  Li66  1  0.18035000  0.99163333  0.45545000  1.0
  Li+  Li67  1  0.18035000  0.65830000  0.45545000  1.0
  Li+  Li68  1  0.18035000  0.32496667  0.45545000  1.0
  Li+  Li69  1  0.68035000  0.99163333  0.45545000  1.0
  Li+  Li70  1  0.68035000  0.65830000  0.45545000  1.0
  Li+  Li71  1  0.68035000  0.32496667  0.45545000  1.0
  P5+  P72  1  0.24708878  0.83529825  0.49761627  1.0
  P5+  P73  1  0.25000000  0.50000000  0.50000000  1.0
  P5+  P74  1  0.25000000  0.16666667  0.50000000  1.0
  P5+  P75  1  0.25000000  0.83333333  0.00000000  1.0
  P5+  P76  1  0.25000000  0.50000000  0.00000000  1.0
  P5+  P77  1  0.25207353  0.16291449  0.99990055  1.0
  P5+  P78  1  0.75000000  0.83333333  0.50000000  1.0
  P5+  P79  1  0.75399353  0.50093562  0.49933254  1.0
  P5+  P80  1  0.75000000  0.16666667  0.50000000  1.0
  P5+  P81  1  0.75000000  0.83333333  0.00000000  1.0
  P5+  P82  1  0.75000000  0.50000000  0.00000000  1.0
  P5+  P83  1  0.75000000  0.16666667  0.00000000  1.0
  S2-  S84  1  0.31020000  0.95373333  0.43980000  1.0
  S2-  S85  1  0.31020000  0.62040000  0.43980000  1.0
  S2-  S86  1  0.31020000  0.28706667  0.43980000  1.0
  S2-  S87  1  0.31074067  0.95383624  0.94167547  1.0
  S2-  S88  1  0.31020000  0.62040000  0.93980000  1.0
  S2-  S89  1  0.31020000  0.28706667  0.93980000  1.0
  S2-  S90  1  0.81020000  0.95373333  0.43980000  1.0
  S2-  S91  1  0.81020000  0.62040000  0.43980000  1.0
  S2-  S92  1  0.81020000  0.28706667  0.43980000  1.0
  S2-  S93  1  0.81020000  0.95373333  0.93980000  1.0
  S2-  S94  1  0.81020000  0.62040000  0.93980000  1.0
  S2-  S95  1  0.81020000  0.28706667  0.93980000  1.0
  S2-  S96  1  0.31020000  0.79320000  0.68060000  1.0
  S2-  S97  1  0.31078449  0.45497149  0.67837829  1.0
  S2-  S98  1  0.31020000  0.12653333  0.68060000  1.0
  S2-  S99  1  0.31020000  0.79320000  0.18060000  1.0
  S2-  S100  1  0.31020000  0.45986667  0.18060000  1.0
  S2-  S101  1  0.31030644  0.12615334  0.17743082  1.0
  S2-  S102  1  0.81020000  0.79320000  0.68060000  1.0
  S2-  S103  1  0.81020000  0.45986667  0.68060000  1.0
  S2-  S104  1  0.81031234  0.12477498  0.68191618  1.0
  S2-  S105  1  0.81214792  0.79088534  0.17996875  1.0
  S2-  S106  1  0.81020000  0.45986667  0.18060000  1.0
  S2-  S107  1  0.81020000  0.12653333  0.18060000  1.0
  S2-  S108  1  0.31020000  0.79320000  0.43980000  1.0
  S2-  S109  1  0.31020000  0.45986667  0.43980000  1.0
  S2-  S110  1  0.31020000  0.12653333  0.43980000  1.0
  S2-  S111  1  0.31020000  0.79320000  0.93980000  1.0
  S2-  S112  1  0.31020000  0.45986667  0.93980000  1.0
  S2-  S113  1  0.31020000  0.12653333  0.93980000  1.0
  S2-  S114  1  0.81020000  0.79320000  0.43980000  1.0
  S2-  S115  1  0.81020000  0.45986667  0.43980000  1.0
  S2-  S116  1  0.80941565  0.12696018  0.43936560  1.0
  S2-  S117  1  0.81020000  0.79320000  0.93980000  1.0
  S2-  S118  1  0.81020000  0.45986667  0.93980000  1.0
  S2-  S119  1  0.80995695  0.13122758  0.94729647  1.0
  S2-  S120  1  0.06940000  0.79320000  0.43980000  1.0
  S2-  S121  1  0.06940000  0.45986667  0.43980000  1.0
  S2-  S122  1  0.07096780  0.12691374  0.44297184  1.0
  S2-  S123  1  0.06940000  0.79320000  0.93980000  1.0
  S2-  S124  1  0.06940000  0.45986667  0.93980000  1.0
  S2-  S125  1  0.06940000  0.12653333  0.93980000  1.0
  S2-  S126  1  0.56940000  0.79320000  0.43980000  1.0
  S2-  S127  1  0.56940000  0.45986667  0.43980000  1.0
  S2-  S128  1  0.57093308  0.12535156  0.43992439  1.0
  S2-  S129  1  0.56940000  0.79320000  0.93980000  1.0
  S2-  S130  1  0.56940000  0.45986667  0.93980000  1.0
  S2-  S131  1  0.56882083  0.12537784  0.93991844  1.0
  S2-  S132  1  0.00238344  0.99613505  0.75250427  1.0
  S2-  S133  1  0.00000000  0.66666667  0.75000000  1.0
  S2-  S134  1  0.00000000  0.33333333  0.75000000  1.0
  S2-  S135  1  0.12272146  0.91177044  0.12443755  1.0
  S2-  S136  1  0.12500000  0.58333333  0.12500000  1.0
  S2-  S137  1  0.12641806  0.25280313  0.12664970  1.0
  S2-  S138  1  0.62500000  0.91666667  0.62500000  1.0
  S2-  S139  1  0.62500000  0.58333333  0.62500000  1.0
  S2-  S140  1  0.62500000  0.25000000  0.62500000  1.0
  S2-  S141  1  0.62754140  0.91606114  0.12822031  1.0
  S2-  S142  1  0.62500000  0.58333333  0.12500000  1.0
  S2-  S143  1  0.62500000  0.25000000  0.12500000  1.0
  Br-  Br144  1  0.00609240  0.99769969  0.24889835  1.0
  Br-  Br145  1  0.00000000  0.66666667  0.25000000  1.0
  Br-  Br146  1  0.00000000  0.33333333  0.25000000  1.0
  Br-  Br147  1  0.50000000  0.00000000  0.75000000  1.0
  Br-  Br148  1  0.50000000  0.66666667  0.75000000  1.0
  Br-  Br149  1  0.50000000  0.33333333  0.75000000  1.0
  Br-  Br150  1  0.49711629  0.00183244  0.24529307  1.0
  Br-  Br151  1  0.50480204  0.66666667  0.24718919  1.0
  Br-  Br152  1  0.49992455  0.33149850  0.25421551  1.0
  Br-  Br153  1  0.12646132  0.91524816  0.62350254  1.0
  Br-  Br154  1  0.12500000  0.58333333  0.62500000  1.0
  Br-  Br155  1  0.12500000  0.25000000  0.62500000  1.0
