# generated using pymatgen
data_Li6PS5Br
_symmetry_space_group_name_H-M   'P 1'
_cell_length_a   14.12389227
_cell_length_b   14.12389227
_cell_length_c   21.18583839
_cell_angle_alpha   60.00000000
_cell_angle_beta   60.00000000
_cell_angle_gamma   60.00000000
_symmetry_Int_Tables_number   1
_chemical_formula_structural   Li6PS5Br
_chemical_formula_sum   'Li72 P12 S60 Br12'
_cell_volume   2988.40496912
_cell_formula_units_Z   12
loop_
 _symmetry_equiv_pos_site_id
 _symmetry_equiv_pos_as_xyz
  1  'x, y, z'
loop_
 _atom_type_symbol
 _atom_type_oxidation_number
  Li+  1.0
  P5+  5.0
  S2-  -2.0
  Br-  -1.0
loop_
 _atom_site_type_symbol
 _atom_site_label
 _atom_site_symmetry_multiplicity
 _atom_site_fract_x
 _atom_site_fract_y
 _atom_site_fract_z
 _atom_site_occupancy
  Li+  Li0  1  0.74150000  0.00850000  0.16100000  1.0
  Li+  Li0  1  0.74150000  0.00850000  0.49433333  1.0
  Li+  Li0  1  0.74150000  0.00850000  0.82766667  1.0
  Li+  Li1  1  0.24150000  0.50850000  0.00566667  1.0
  Li+  Li1  1  0.24150000  0.50850000  0.33900000  1.0
  Li+  Li1  1  0.24150000  0.50850000  0.67233333  1.0
  Li+  Li2  1  0.74150000  0.74150000  0.00566667  1.0
  Li+  Li2  1  0.74150000  0.74150000  0.33900000  1.0
  Li+  Li2  1  0.74150000  0.74150000  0.67233333  1.0
  Li+  Li3  1  0.01255000  0.18035000  0.00836667  1.0
  Li+  Li3  1  0.01255000  0.18035000  0.34170000  1.0
  Li+  Li3  1  0.01255000  0.18035000  0.67503333  1.0
  Li+  Li4  1  0.51255000  0.18035000  0.00836667  1.0
  Li+  Li4  1  0.51255000  0.18035000  0.34170000  1.0
  Li+  Li4  1  0.51255000  0.18035000  0.67503333  1.0
  Li+  Li5  1  0.51255000  0.68035000  0.00836667  1.0
  Li+  Li5  1  0.51255000  0.68035000  0.34170000  1.0
  Li+  Li5  1  0.51255000  0.68035000  0.67503333  1.0
  Li+  Li6  1  0.01255000  0.01255000  0.19636667  1.0
  Li+  Li6  1  0.01255000  0.01255000  0.52970000  1.0
  Li+  Li6  1  0.01255000  0.01255000  0.86303333  1.0
  Li+  Li7  1  0.01255000  0.68035000  0.19636667  1.0
  Li+  Li7  1  0.01255000  0.68035000  0.52970000  1.0
  Li+  Li7  1  0.01255000  0.68035000  0.86303333  1.0
  Li+  Li8  1  0.51255000  0.18035000  0.19636667  1.0
  Li+  Li8  1  0.51255000  0.18035000  0.52970000  1.0
  Li+  Li8  1  0.51255000  0.18035000  0.86303333  1.0
  Li+  Li9  1  0.51255000  0.68035000  0.19636667  1.0
  Li+  Li9  1  0.51255000  0.68035000  0.52970000  1.0
  Li+  Li9  1  0.51255000  0.68035000  0.86303333  1.0
  Li+  Li10  1  0.01255000  0.01255000  0.12023333  1.0
  Li+  Li10  1  0.01255000  0.01255000  0.45356667  1.0
  Li+  Li10  1  0.01255000  0.01255000  0.78690000  1.0
  Li+  Li11  1  0.01255000  0.51255000  0.12023333  1.0
  Li+  Li11  1  0.01255000  0.51255000  0.45356667  1.0
  Li+  Li11  1  0.01255000  0.51255000  0.78690000  1.0
  Li+  Li12  1  0.51255000  0.51255000  0.12023333  1.0
  Li+  Li12  1  0.51255000  0.51255000  0.45356667  1.0
  Li+  Li12  1  0.51255000  0.51255000  0.78690000  1.0
  Li+  Li13  1  0.01255000  0.29455000  0.00836667  1.0
  Li+  Li13  1  0.01255000  0.29455000  0.34170000  1.0
  Li+  Li13  1  0.01255000  0.29455000  0.67503333  1.0
  Li+  Li14  1  0.01255000  0.79455000  0.00836667  1.0
  Li+  Li14  1  0.01255000  0.79455000  0.34170000  1.0
  Li+  Li14  1  0.01255000  0.79455000  0.67503333  1.0
  Li+  Li15  1  0.51255000  0.29455000  0.00836667  1.0
  Li+  Li15  1  0.51255000  0.29455000  0.34170000  1.0
  Li+  Li15  1  0.51255000  0.29455000  0.67503333  1.0
  Li+  Li16  1  0.18035000  0.51255000  0.19636667  1.0
  Li+  Li16  1  0.18035000  0.51255000  0.52970000  1.0
  Li+  Li16  1  0.18035000  0.51255000  0.86303333  1.0
  Li+  Li17  1  0.18035000  0.01255000  0.00836667  1.0
  Li+  Li17  1  0.18035000  0.01255000  0.34170000  1.0
  Li+  Li17  1  0.18035000  0.01255000  0.67503333  1.0
  Li+  Li18  1  0.68035000  0.01255000  0.00836667  1.0
  Li+  Li18  1  0.68035000  0.01255000  0.34170000  1.0
  Li+  Li18  1  0.68035000  0.01255000  0.67503333  1.0
  Li+  Li19  1  0.29455000  0.01255000  0.12023333  1.0
  Li+  Li19  1  0.29455000  0.01255000  0.45356667  1.0
  Li+  Li19  1  0.29455000  0.01255000  0.78690000  1.0
  Li+  Li20  1  0.29455000  0.68035000  0.00836667  1.0
  Li+  Li20  1  0.29455000  0.68035000  0.34170000  1.0
  Li+  Li20  1  0.29455000  0.68035000  0.67503333  1.0
  Li+  Li21  1  0.79455000  0.18035000  0.00836667  1.0
  Li+  Li21  1  0.79455000  0.18035000  0.34170000  1.0
  Li+  Li21  1  0.79455000  0.18035000  0.67503333  1.0
  Li+  Li22  1  0.18035000  0.29455000  0.00836667  1.0
  Li+  Li22  1  0.18035000  0.29455000  0.34170000  1.0
  Li+  Li22  1  0.18035000  0.29455000  0.67503333  1.0
  Li+  Li23  1  0.68035000  0.29455000  0.00836667  1.0
  Li+  Li23  1  0.68035000  0.29455000  0.34170000  1.0
  Li+  Li23  1  0.68035000  0.29455000  0.67503333  1.0
  P5+  P24  1  0.25000000  0.25000000  0.16666667  1.0
  P5+  P24  1  0.25000000  0.25000000  0.50000000  1.0
  P5+  P24  1  0.25000000  0.25000000  0.83333333  1.0
  P5+  P25  1  0.25000000  0.75000000  0.16666667  1.0
  P5+  P25  1  0.25000000  0.75000000  0.50000000  1.0
  P5+  P25  1  0.25000000  0.75000000  0.83333333  1.0
  P5+  P26  1  0.75000000  0.25000000  0.16666667  1.0
  P5+  P26  1  0.75000000  0.25000000  0.50000000  1.0
  P5+  P26  1  0.75000000  0.25000000  0.83333333  1.0
  P5+  P27  1  0.75000000  0.75000000  0.16666667  1.0
  P5+  P27  1  0.75000000  0.75000000  0.50000000  1.0
  P5+  P27  1  0.75000000  0.75000000  0.83333333  1.0
  S2-  S2  1  0.31020000  0.31020000  0.04626667  1.0
  S2-  S2  1  0.31020000  0.31020000  0.37960000  1.0
  S2-  S2  1  0.31020000  0.31020000  0.71293333  1.0
  S2-  S2  1  0.31020000  0.81020000  0.04626667  1.0
  S2-  S2  1  0.31020000  0.81020000  0.37960000  1.0
  S2-  S2  1  0.31020000  0.81020000  0.71293333  1.0
  S2-  S2  1  0.81020000  0.31020000  0.04626667  1.0
  S2-  S2  1  0.81020000  0.31020000  0.37960000  1.0
  S2-  S2  1  0.81020000  0.31020000  0.71293333  1.0
  S2-  S2  1  0.81020000  0.81020000  0.04626667  1.0
  S2-  S2  1  0.81020000  0.81020000  0.37960000  1.0
  S2-  S2  1  0.81020000  0.81020000  0.71293333  1.0
  S2-  S2  1  0.31020000  0.06940000  0.20680000  1.0
  S2-  S2  1  0.31020000  0.06940000  0.54013333  1.0
  S2-  S2  1  0.31020000  0.06940000  0.87346667  1.0
  S2-  S2  1  0.31020000  0.56940000  0.20680000  1.0
  S2-  S2  1  0.31020000  0.56940000  0.54013333  1.0
  S2-  S2  1  0.31020000  0.56940000  0.87346667  1.0
  S2-  S2  1  0.81020000  0.06940000  0.20680000  1.0
  S2-  S2  1  0.81020000  0.06940000  0.54013333  1.0
  S2-  S2  1  0.81020000  0.06940000  0.87346667  1.0
  S2-  S2  1  0.81020000  0.56940000  0.20680000  1.0
  S2-  S2  1  0.81020000  0.56940000  0.54013333  1.0
  S2-  S2  1  0.81020000  0.56940000  0.87346667  1.0
  S2-  S2  1  0.31020000  0.31020000  0.20680000  1.0
  S2-  S2  1  0.31020000  0.31020000  0.54013333  1.0
  S2-  S2  1  0.31020000  0.31020000  0.87346667  1.0
  S2-  S2  1  0.31020000  0.81020000  0.20680000  1.0
  S2-  S2  1  0.31020000  0.81020000  0.54013333  1.0
  S2-  S2  1  0.31020000  0.81020000  0.87346667  1.0
  S2-  S2  1  0.81020000  0.31020000  0.20680000  1.0
  S2-  S2  1  0.81020000  0.31020000  0.54013333  1.0
  S2-  S2  1  0.81020000  0.31020000  0.87346667  1.0
  S2-  S2  1  0.81020000  0.81020000  0.20680000  1.0
  S2-  S2  1  0.81020000  0.81020000  0.54013333  1.0
  S2-  S2  1  0.81020000  0.81020000  0.87346667  1.0
  S2-  S2  1  0.06940000  0.31020000  0.20680000  1.0
  S2-  S2  1  0.06940000  0.31020000  0.54013333  1.0
  S2-  S2  1  0.06940000  0.31020000  0.87346667  1.0
  S2-  S2  1  0.06940000  0.81020000  0.20680000  1.0
  S2-  S2  1  0.06940000  0.81020000  0.54013333  1.0
  S2-  S2  1  0.06940000  0.81020000  0.87346667  1.0
  S2-  S2  1  0.56940000  0.31020000  0.20680000  1.0
  S2-  S2  1  0.56940000  0.31020000  0.54013333  1.0
  S2-  S2  1  0.56940000  0.31020000  0.87346667  1.0
  S2-  S2  1  0.56940000  0.81020000  0.20680000  1.0
  S2-  S2  1  0.56940000  0.81020000  0.54013333  1.0
  S2-  S2  1  0.56940000  0.81020000  0.87346667  1.0
  S2-  S44  1  0.00000000  0.00000000  0.00000000  1.0
  S2-  S44  1  0.00000000  0.00000000  0.33333333  1.0
  S2-  S44  1  0.00000000  0.00000000  0.66666667  1.0
  S2-  S45  1  0.12500000  0.62500000  0.08333333  1.0
  S2-  S45  1  0.12500000  0.62500000  0.41666667  1.0
  S2-  S45  1  0.12500000  0.62500000  0.75000000  1.0
  S2-  S46  1  0.62500000  0.12500000  0.08333333  1.0
  S2-  S46  1  0.62500000  0.12500000  0.41666667  1.0
  S2-  S46  1  0.62500000  0.12500000  0.75000000  1.0
  S2-  S47  1  0.62500000  0.62500000  0.08333333  1.0
  S2-  S47  1  0.62500000  0.62500000  0.41666667  1.0
  S2-  S47  1  0.62500000  0.62500000  0.75000000  1.0
  Br-  Br48  1  0.00000000  0.50000000  0.00000000  1.0
  Br-  Br48  1  0.00000000  0.50000000  0.33333333  1.0
  Br-  Br48  1  0.00000000  0.50000000  0.66666667  1.0
  Br-  Br49  1  0.50000000  0.00000000  0.00000000  1.0
  Br-  Br49  1  0.50000000  0.00000000  0.33333333  1.0
  Br-  Br49  1  0.50000000  0.00000000  0.66666667  1.0
  Br-  Br50  1  0.50000000  0.50000000  0.00000000  1.0
  Br-  Br50  1  0.50000000  0.50000000  0.33333333  1.0
  Br-  Br50  1  0.50000000  0.50000000  0.66666667  1.0
  Br-  Br51  1  0.12500000  0.12500000  0.08333333  1.0
  Br-  Br51  1  0.12500000  0.12500000  0.41666667  1.0
  Br-  Br51  1  0.12500000  0.12500000  0.75000000  1.0
