# generated using pymatgen
data_Li14Zn(GeO4)4
_symmetry_space_group_name_H-M   'P 1'
_cell_length_a   10.82800000
_cell_length_b   10.28000000
_cell_length_c   12.50200000
_cell_angle_alpha   90.00000000
_cell_angle_beta   90.00000000
_cell_angle_gamma   90.00000000
_symmetry_Int_Tables_number   1
_chemical_formula_structural   Li14Zn(GeO4)4
_chemical_formula_sum   'Li56 Zn4 Ge16 O64'
_cell_volume   1391.62062368
_cell_formula_units_Z   4
loop_
 _symmetry_equiv_pos_site_id
 _symmetry_equiv_pos_as_xyz
  1  'x, y, z'
loop_
 _atom_type_symbol
 _atom_type_oxidation_number
  Li+  1.0
  Zn2+  2.0
  Ge4+  4.0
  O2-  -2.0
loop_
 _atom_site_type_symbol
 _atom_site_label
 _atom_site_symmetry_multiplicity
 _atom_site_fract_x
 _atom_site_fract_y
 _atom_site_fract_z
 _atom_site_occupancy
  Li+  Li0  1  0.00000000  0.00000000  0.50000000  1.0
  Li+  Li1  1  0.00290297  0.00148503  0.99846073  1.0
  Li+  Li2  1  0.00000000  0.50000000  0.75000000  1.0
  Li+  Li3  1  0.00287932  0.50113348  0.24815141  1.0
  Li+  Li4  1  0.70600000  0.23900000  0.62500000  1.0
  Li+  Li5  1  0.70600000  0.23900000  0.12500000  1.0
  Li+  Li6  1  0.20600000  0.51100000  0.62500000  1.0
  Li+  Li7  1  0.20600000  0.51100000  0.12500000  1.0
  Li+  Li8  1  0.29400000  0.76100000  0.37500000  1.0
  Li+  Li9  1  0.29253623  0.76151754  0.86998883  1.0
  Li+  Li10  1  0.29265098  0.26087077  0.37444810  1.0
  Li+  Li11  1  0.29400000  0.26100000  0.87500000  1.0
  Li+  Li12  1  0.92600000  0.83150000  0.37500000  1.0
  Li+  Li13  1  0.92600000  0.83150000  0.87500000  1.0
  Li+  Li14  1  0.92600000  0.33150000  0.37500000  1.0
  Li+  Li15  1  0.92600000  0.33150000  0.87500000  1.0
  Li+  Li16  1  0.42600000  0.91850000  0.37500000  1.0
  Li+  Li17  1  0.42600000  0.91850000  0.87500000  1.0
  Li+  Li18  1  0.42600000  0.41850000  0.37500000  1.0
  Li+  Li19  1  0.42600000  0.41850000  0.87500000  1.0
  Li+  Li20  1  0.07420933  0.67145039  0.62777704  1.0
  Li+  Li21  1  0.07663067  0.66676867  0.12339711  1.0
  Li+  Li22  1  0.07400000  0.16850000  0.62500000  1.0
  Li+  Li23  1  0.07400000  0.16850000  0.12500000  1.0
  Li+  Li24  1  0.57400000  0.58150000  0.62500000  1.0
  Li+  Li25  1  0.57400000  0.58150000  0.12500000  1.0
  Li+  Li26  1  0.57201173  0.08267364  0.62324661  1.0
  Li+  Li27  1  0.57132720  0.08175837  0.12197322  1.0
  Li+  Li28  1  0.16530000  0.83515000  0.49885000  1.0
  Li+  Li29  1  0.16530000  0.83515000  0.99885000  1.0
  Li+  Li30  1  0.16530000  0.33515000  0.49885000  1.0
  Li+  Li31  1  0.16530000  0.33515000  0.99885000  1.0
  Li+  Li32  1  0.33470000  0.58515000  0.50115000  1.0
  Li+  Li33  1  0.33470000  0.58515000  0.00115000  1.0
  Li+  Li34  1  0.33470000  0.08515000  0.50115000  1.0
  Li+  Li35  1  0.33518423  0.08468438  0.99655326  1.0
  Li+  Li36  1  0.83470000  0.66485000  0.74885000  1.0
  Li+  Li37  1  0.83308050  0.66666667  0.24515952  1.0
  Li+  Li38  1  0.83470000  0.16485000  0.74885000  1.0
  Li+  Li39  1  0.83420055  0.16642844  0.24943190  1.0
  Li+  Li40  1  0.33586642  0.58832655  0.74766459  1.0
  Li+  Li41  1  0.33409996  0.58597440  0.24672293  1.0
  Li+  Li42  1  0.33470000  0.08515000  0.74885000  1.0
  Li+  Li43  1  0.33470000  0.08515000  0.24885000  1.0
  Li+  Li44  1  0.83470000  0.66485000  0.50115000  1.0
  Li+  Li45  1  0.83470000  0.66485000  0.00115000  1.0
  Li+  Li46  1  0.83470000  0.16485000  0.50115000  1.0
  Li+  Li47  1  0.83470000  0.16485000  0.00115000  1.0
  Li+  Li48  1  0.66530000  0.91485000  0.49885000  1.0
  Li+  Li49  1  0.66530000  0.91485000  0.99885000  1.0
  Li+  Li50  1  0.66530000  0.41485000  0.49885000  1.0
  Li+  Li51  1  0.66530000  0.41485000  0.99885000  1.0
  Li+  Li52  1  0.16530000  0.83515000  0.25115000  1.0
  Li+  Li53  1  0.16530000  0.83515000  0.75115000  1.0
  Li+  Li54  1  0.16484972  0.33432201  0.25635418  1.0
  Li+  Li55  1  0.16530000  0.33515000  0.75115000  1.0
  Zn2+  Zn56  1  0.66530000  0.91485000  0.25115000  1.0
  Zn2+  Zn57  1  0.66530000  0.91485000  0.75115000  1.0
  Zn2+  Zn58  1  0.66530000  0.41485000  0.25115000  1.0
  Zn2+  Zn59  1  0.66530000  0.41485000  0.75115000  1.0
  Ge4+  Ge60  1  0.91634440  0.92267567  0.62377153  1.0
  Ge4+  Ge61  1  0.91849265  0.92328652  0.12827536  1.0
  Ge4+  Ge62  1  0.91310000  0.41980000  0.62500000  1.0
  Ge4+  Ge63  1  0.91310000  0.41980000  0.12500000  1.0
  Ge4+  Ge64  1  0.41310000  0.83020000  0.62500000  1.0
  Ge4+  Ge65  1  0.41310000  0.83020000  0.12500000  1.0
  Ge4+  Ge66  1  0.41474718  0.33217287  0.62499774  1.0
  Ge4+  Ge67  1  0.41310000  0.33020000  0.12500000  1.0
  Ge4+  Ge68  1  0.08690000  0.58020000  0.37500000  1.0
  Ge4+  Ge69  1  0.08690000  0.58020000  0.87500000  1.0
  Ge4+  Ge70  1  0.08690000  0.08020000  0.37500000  1.0
  Ge4+  Ge71  1  0.09119338  0.08098833  0.87832694  1.0
  Ge4+  Ge72  1  0.58690000  0.66980000  0.37500000  1.0
  Ge4+  Ge73  1  0.58690000  0.66980000  0.87500000  1.0
  Ge4+  Ge74  1  0.58518383  0.17303686  0.37018221  1.0
  Ge4+  Ge75  1  0.58690000  0.16980000  0.87500000  1.0
  O2-  O76  1  0.83530000  0.85925000  0.73775000  1.0
  O2-  O77  1  0.83530000  0.85925000  0.23775000  1.0
  O2-  O78  1  0.83530000  0.35925000  0.73775000  1.0
  O2-  O79  1  0.83530000  0.35925000  0.23775000  1.0
  O2-  O80  1  0.33530000  0.89075000  0.51225000  1.0
  O2-  O81  1  0.33570415  0.89524352  0.01185589  1.0
  O2-  O82  1  0.33530000  0.39075000  0.51225000  1.0
  O2-  O83  1  0.33530000  0.39075000  0.01225000  1.0
  O2-  O84  1  0.16470000  0.64075000  0.48775000  1.0
  O2-  O85  1  0.16470000  0.64075000  0.98775000  1.0
  O2-  O86  1  0.16470000  0.14075000  0.48775000  1.0
  O2-  O87  1  0.16685587  0.14031293  0.98984636  1.0
  O2-  O88  1  0.66427903  0.60916267  0.26182942  1.0
  O2-  O89  1  0.66470000  0.60925000  0.76225000  1.0
  O2-  O90  1  0.66470000  0.10925000  0.26225000  1.0
  O2-  O91  1  0.66470000  0.10925000  0.76225000  1.0
  O2-  O92  1  0.16470000  0.64075000  0.26225000  1.0
  O2-  O93  1  0.16470000  0.64075000  0.76225000  1.0
  O2-  O94  1  0.16470000  0.14075000  0.26225000  1.0
  O2-  O95  1  0.16470000  0.14075000  0.76225000  1.0
  O2-  O96  1  0.66423105  0.61381729  0.49077508  1.0
  O2-  O97  1  0.66470000  0.60925000  0.98775000  1.0
  O2-  O98  1  0.66470000  0.10925000  0.48775000  1.0
  O2-  O99  1  0.66193591  0.11055132  0.98658295  1.0
  O2-  O100  1  0.83530000  0.85925000  0.51225000  1.0
  O2-  O101  1  0.83530000  0.85925000  0.01225000  1.0
  O2-  O102  1  0.83530000  0.35925000  0.51225000  1.0
  O2-  O103  1  0.83530000  0.35925000  0.01225000  1.0
  O2-  O104  1  0.33547236  0.88958118  0.73895149  1.0
  O2-  O105  1  0.33530000  0.89075000  0.23775000  1.0
  O2-  O106  1  0.33530000  0.39075000  0.73775000  1.0
  O2-  O107  1  0.33530000  0.39075000  0.23775000  1.0
  O2-  O108  1  0.59085423  0.83907329  0.37064741  1.0
  O2-  O109  1  0.58800000  0.83890000  0.87500000  1.0
  O2-  O110  1  0.58800000  0.33890000  0.37500000  1.0
  O2-  O111  1  0.58800000  0.33890000  0.87500000  1.0
  O2-  O112  1  0.08703583  0.90657626  0.37659755  1.0
  O2-  O113  1  0.08800000  0.91110000  0.87500000  1.0
  O2-  O114  1  0.08704496  0.40998732  0.37782943  1.0
  O2-  O115  1  0.08800000  0.41110000  0.87500000  1.0
  O2-  O116  1  0.41200000  0.66110000  0.62500000  1.0
  O2-  O117  1  0.41200000  0.66110000  0.12500000  1.0
  O2-  O118  1  0.41200000  0.16110000  0.62500000  1.0
  O2-  O119  1  0.41200000  0.16110000  0.12500000  1.0
  O2-  O120  1  0.91200000  0.58890000  0.62500000  1.0
  O2-  O121  1  0.91200000  0.58890000  0.12500000  1.0
  O2-  O122  1  0.90793659  0.08927213  0.62444259  1.0
  O2-  O123  1  0.91200000  0.08890000  0.12500000  1.0
  O2-  O124  1  0.56043866  0.88746662  0.62374480  1.0
  O2-  O125  1  0.56330000  0.88945000  0.12500000  1.0
  O2-  O126  1  0.56330000  0.38945000  0.62500000  1.0
  O2-  O127  1  0.56330000  0.38945000  0.12500000  1.0
  O2-  O128  1  0.06166417  0.86314557  0.62251061  1.0
  O2-  O129  1  0.06330000  0.86055000  0.12500000  1.0
  O2-  O130  1  0.06330000  0.36055000  0.62500000  1.0
  O2-  O131  1  0.06330000  0.36055000  0.12500000  1.0
  O2-  O132  1  0.43670000  0.61055000  0.37500000  1.0
  O2-  O133  1  0.43606097  0.60576098  0.87117657  1.0
  O2-  O134  1  0.43670000  0.11055000  0.37500000  1.0
  O2-  O135  1  0.43520462  0.10717435  0.87150049  1.0
  O2-  O136  1  0.93624587  0.64141116  0.37332760  1.0
  O2-  O137  1  0.93670000  0.63945000  0.87500000  1.0
  O2-  O138  1  0.93575684  0.14090211  0.37459034  1.0
  O2-  O139  1  0.93670000  0.13945000  0.87500000  1.0
