# generated using pymatgen
data_Li14Zn(GeO4)4
_symmetry_space_group_name_H-M   'P 1'
_cell_length_a   12.61520975
_cell_length_b   10.92605112
_cell_length_c   10.37308880
_cell_angle_alpha   90.00000000
_cell_angle_beta   90.00000000
_cell_angle_gamma   90.00000000
_symmetry_Int_Tables_number   1
_chemical_formula_structural   Li14Zn(GeO4)4
_chemical_formula_sum   'Li56 Zn4 Ge16 O64'
_cell_volume   1429.76874701
_cell_formula_units_Z   4
loop_
 _symmetry_equiv_pos_site_id
 _symmetry_equiv_pos_as_xyz
  1  'x, y, z'
loop_
 _atom_type_symbol
 _atom_type_oxidation_number
  Li+  1.0
  Zn2+  2.0
  Ge4+  4.0
  O2-  -2.0
loop_
 _atom_site_type_symbol
 _atom_site_label
 _atom_site_symmetry_multiplicity
 _atom_site_fract_x
 _atom_site_fract_y
 _atom_site_fract_z
 _atom_site_occupancy
  Li+  Li0  1  0.75000000  0.66666667  0.00000000  1.0
  Li+  Li1  1  0.25000000  0.66666667  0.00000000  1.0
  Li+  Li2  1  0.00000000  0.66666667  0.50000000  1.0
  Li+  Li3  1  0.50000000  0.66666667  0.50000000  1.0
  Li+  Li4  1  0.87500000  0.96066667  0.76100000  1.0
  Li+  Li5  1  0.37500000  0.96066667  0.76100000  1.0
  Li+  Li6  1  0.87500000  0.46066667  0.48900000  1.0
  Li+  Li7  1  0.37500000  0.46066667  0.48900000  1.0
  Li+  Li8  1  0.62500000  0.37266667  0.23900000  1.0
  Li+  Li9  1  0.12500000  0.37266667  0.23900000  1.0
  Li+  Li10  1  0.62500000  0.37266667  0.73900000  1.0
  Li+  Li11  1  0.12500000  0.37266667  0.73900000  1.0
  Li+  Li12  1  0.62500000  0.74066667  0.16850000  1.0
  Li+  Li13  1  0.12500000  0.74066667  0.16850000  1.0
  Li+  Li14  1  0.62500000  0.74066667  0.66850000  1.0
  Li+  Li15  1  0.12500000  0.74066667  0.66850000  1.0
  Li+  Li16  1  0.62500000  0.24066667  0.08150000  1.0
  Li+  Li17  1  0.12500000  0.24066667  0.08150000  1.0
  Li+  Li18  1  0.62500000  0.24066667  0.58150000  1.0
  Li+  Li19  1  0.12500000  0.24066667  0.58150000  1.0
  Li+  Li20  1  0.87500000  0.59266667  0.33150000  1.0
  Li+  Li21  1  0.37500000  0.59266667  0.33150000  1.0
  Li+  Li22  1  0.87500000  0.59266667  0.83150000  1.0
  Li+  Li23  1  0.37500000  0.59266667  0.83150000  1.0
  Li+  Li24  1  0.87500000  0.09266667  0.41850000  1.0
  Li+  Li25  1  0.37500000  0.09266667  0.41850000  1.0
  Li+  Li26  1  0.87500000  0.09266667  0.91850000  1.0
  Li+  Li27  1  0.37500000  0.09266667  0.91850000  1.0
  Li+  Li28  1  0.74885000  0.50136667  0.16485000  1.0
  Li+  Li29  1  0.24885000  0.50136667  0.16485000  1.0
  Li+  Li30  1  0.74885000  0.50136667  0.66485000  1.0
  Li+  Li31  1  0.24885000  0.50136667  0.66485000  1.0
  Li+  Li32  1  0.75115000  0.33196667  0.41485000  1.0
  Li+  Li33  1  0.25115000  0.33196667  0.41485000  1.0
  Li+  Li34  1  0.75115000  0.33196667  0.91485000  1.0
  Li+  Li35  1  0.25115000  0.33196667  0.91485000  1.0
  Li+  Li36  1  0.99885000  0.83196667  0.33515000  1.0
  Li+  Li37  1  0.49885000  0.83196667  0.33515000  1.0
  Li+  Li38  1  0.99885000  0.83196667  0.83515000  1.0
  Li+  Li39  1  0.49885000  0.83196667  0.83515000  1.0
  Li+  Li40  1  0.99885000  0.33196667  0.41485000  1.0
  Li+  Li41  1  0.49885000  0.33196667  0.41485000  1.0
  Li+  Li42  1  0.99885000  0.33196667  0.91485000  1.0
  Li+  Li43  1  0.49885000  0.33196667  0.91485000  1.0
  Li+  Li44  1  0.75115000  0.83196667  0.33515000  1.0
  Li+  Li45  1  0.25115000  0.83196667  0.33515000  1.0
  Li+  Li46  1  0.75115000  0.83196667  0.83515000  1.0
  Li+  Li47  1  0.25115000  0.83196667  0.83515000  1.0
  Li+  Li48  1  0.74885000  0.00136667  0.08515000  1.0
  Li+  Li49  1  0.24885000  0.00136667  0.08515000  1.0
  Li+  Li50  1  0.74885000  0.00136667  0.58515000  1.0
  Li+  Li51  1  0.24885000  0.00136667  0.58515000  1.0
  Li+  Li52  1  0.50115000  0.50136667  0.16485000  1.0
  Li+  Li53  1  0.00115000  0.50136667  0.16485000  1.0
  Li+  Li54  1  0.50115000  0.50136667  0.66485000  1.0
  Li+  Li55  1  0.00115000  0.50136667  0.66485000  1.0
  Zn2+  Zn56  1  0.50115000  0.00136667  0.08515000  1.0
  Zn2+  Zn57  1  0.00115000  0.00136667  0.08515000  1.0
  Zn2+  Zn58  1  0.50115000  0.00136667  0.58515000  1.0
  Zn2+  Zn59  1  0.00115000  0.00136667  0.58515000  1.0
  Ge4+  Ge60  1  0.87500000  0.75356667  0.08020000  1.0
  Ge4+  Ge61  1  0.37500000  0.75356667  0.08020000  1.0
  Ge4+  Ge62  1  0.87500000  0.75356667  0.58020000  1.0
  Ge4+  Ge63  1  0.37500000  0.75356667  0.58020000  1.0
  Ge4+  Ge64  1  0.87500000  0.25356667  0.16980000  1.0
  Ge4+  Ge65  1  0.37500000  0.25356667  0.16980000  1.0
  Ge4+  Ge66  1  0.87500000  0.25356667  0.66980000  1.0
  Ge4+  Ge67  1  0.37500000  0.25356667  0.66980000  1.0
  Ge4+  Ge68  1  0.62500000  0.57976667  0.41980000  1.0
  Ge4+  Ge69  1  0.12500000  0.57976667  0.41980000  1.0
  Ge4+  Ge70  1  0.62500000  0.57976667  0.91980000  1.0
  Ge4+  Ge71  1  0.12500000  0.57976667  0.91980000  1.0
  Ge4+  Ge72  1  0.62500000  0.07976667  0.33020000  1.0
  Ge4+  Ge73  1  0.12500000  0.07976667  0.33020000  1.0
  Ge4+  Ge74  1  0.62500000  0.07976667  0.83020000  1.0
  Ge4+  Ge75  1  0.12500000  0.07976667  0.83020000  1.0
  O2-  O76  1  0.98775000  0.83136667  0.14075000  1.0
  O2-  O77  1  0.48775000  0.83136667  0.14075000  1.0
  O2-  O78  1  0.98775000  0.83136667  0.64075000  1.0
  O2-  O79  1  0.48775000  0.83136667  0.64075000  1.0
  O2-  O80  1  0.76225000  0.33136667  0.10925000  1.0
  O2-  O81  1  0.26225000  0.33136667  0.10925000  1.0
  O2-  O82  1  0.76225000  0.33136667  0.60925000  1.0
  O2-  O83  1  0.26225000  0.33136667  0.60925000  1.0
  O2-  O84  1  0.73775000  0.50196667  0.35925000  1.0
  O2-  O85  1  0.23775000  0.50196667  0.35925000  1.0
  O2-  O86  1  0.73775000  0.50196667  0.85925000  1.0
  O2-  O87  1  0.23775000  0.50196667  0.85925000  1.0
  O2-  O88  1  0.51225000  0.00196667  0.39075000  1.0
  O2-  O89  1  0.01225000  0.00196667  0.39075000  1.0
  O2-  O90  1  0.51225000  0.00196667  0.89075000  1.0
  O2-  O91  1  0.01225000  0.00196667  0.89075000  1.0
  O2-  O92  1  0.51225000  0.50196667  0.35925000  1.0
  O2-  O93  1  0.01225000  0.50196667  0.35925000  1.0
  O2-  O94  1  0.51225000  0.50196667  0.85925000  1.0
  O2-  O95  1  0.01225000  0.50196667  0.85925000  1.0
  O2-  O96  1  0.73775000  0.00196667  0.39075000  1.0
  O2-  O97  1  0.23775000  0.00196667  0.39075000  1.0
  O2-  O98  1  0.73775000  0.00196667  0.89075000  1.0
  O2-  O99  1  0.23775000  0.00196667  0.89075000  1.0
  O2-  O100  1  0.76225000  0.83136667  0.14075000  1.0
  O2-  O101  1  0.26225000  0.83136667  0.14075000  1.0
  O2-  O102  1  0.76225000  0.83136667  0.64075000  1.0
  O2-  O103  1  0.26225000  0.83136667  0.64075000  1.0
  O2-  O104  1  0.98775000  0.33136667  0.10925000  1.0
  O2-  O105  1  0.48775000  0.33136667  0.10925000  1.0
  O2-  O106  1  0.98775000  0.33136667  0.60925000  1.0
  O2-  O107  1  0.48775000  0.33136667  0.60925000  1.0
  O2-  O108  1  0.62500000  0.07866667  0.16110000  1.0
  O2-  O109  1  0.12500000  0.07866667  0.16110000  1.0
  O2-  O110  1  0.62500000  0.07866667  0.66110000  1.0
  O2-  O111  1  0.12500000  0.07866667  0.66110000  1.0
  O2-  O112  1  0.62500000  0.57866667  0.08890000  1.0
  O2-  O113  1  0.12500000  0.57866667  0.08890000  1.0
  O2-  O114  1  0.62500000  0.57866667  0.58890000  1.0
  O2-  O115  1  0.12500000  0.57866667  0.58890000  1.0
  O2-  O116  1  0.87500000  0.25466667  0.33890000  1.0
  O2-  O117  1  0.37500000  0.25466667  0.33890000  1.0
  O2-  O118  1  0.87500000  0.25466667  0.83890000  1.0
  O2-  O119  1  0.37500000  0.25466667  0.83890000  1.0
  O2-  O120  1  0.87500000  0.75466667  0.41110000  1.0
  O2-  O121  1  0.37500000  0.75466667  0.41110000  1.0
  O2-  O122  1  0.87500000  0.75466667  0.91110000  1.0
  O2-  O123  1  0.37500000  0.75466667  0.91110000  1.0
  O2-  O124  1  0.87500000  0.10336667  0.11055000  1.0
  O2-  O125  1  0.37500000  0.10336667  0.11055000  1.0
  O2-  O126  1  0.87500000  0.10336667  0.61055000  1.0
  O2-  O127  1  0.37500000  0.10336667  0.61055000  1.0
  O2-  O128  1  0.87500000  0.60336667  0.13945000  1.0
  O2-  O129  1  0.37500000  0.60336667  0.13945000  1.0
  O2-  O130  1  0.87500000  0.60336667  0.63945000  1.0
  O2-  O131  1  0.37500000  0.60336667  0.63945000  1.0
  O2-  O132  1  0.62500000  0.22996667  0.38945000  1.0
  O2-  O133  1  0.12500000  0.22996667  0.38945000  1.0
  O2-  O134  1  0.62500000  0.22996667  0.88945000  1.0
  O2-  O135  1  0.12500000  0.22996667  0.88945000  1.0
  O2-  O136  1  0.62500000  0.72996667  0.36055000  1.0
  O2-  O137  1  0.12500000  0.72996667  0.36055000  1.0
  O2-  O138  1  0.62500000  0.72996667  0.86055000  1.0
  O2-  O139  1  0.12500000  0.72996667  0.86055000  1.0
