# generated using pymatgen
data_Li14Zn(GeO4)4
_symmetry_space_group_name_H-M   'P 1'
_cell_length_a   10.82800000
_cell_length_b   12.50200000
_cell_length_c   10.28000000
_cell_angle_alpha   90.00000000
_cell_angle_beta   90.00000000
_cell_angle_gamma   90.00000000
_symmetry_Int_Tables_number   1
_chemical_formula_structural   Li14Zn(GeO4)4
_chemical_formula_sum   'Li56 Zn4 Ge16 O64'
_cell_volume   1391.62062368
_cell_formula_units_Z   4
loop_
 _symmetry_equiv_pos_site_id
 _symmetry_equiv_pos_as_xyz
  1  'x, y, z'
loop_
 _atom_type_symbol
 _atom_type_oxidation_number
  Li+  1.0
  Zn2+  2.0
  Ge4+  4.0
  O2-  -2.0
loop_
 _atom_site_type_symbol
 _atom_site_label
 _atom_site_symmetry_multiplicity
 _atom_site_fract_x
 _atom_site_fract_y
 _atom_site_fract_z
 _atom_site_occupancy
  Li+  Li0  1  0.00000000  0.25000000  0.00000000  1.0
  Li+  Li0  1  0.00000000  0.75000000  0.00000000  1.0
  Li+  Li1  1  0.00000000  0.00000000  0.50000000  1.0
  Li+  Li1  1  0.00000000  0.50000000  0.50000000  1.0
  Li+  Li2  1  0.70600000  0.12500000  0.76100000  1.0
  Li+  Li2  1  0.70600000  0.62500000  0.76100000  1.0
  Li+  Li3  1  0.20600000  0.12500000  0.48900000  1.0
  Li+  Li3  1  0.20600000  0.62500000  0.48900000  1.0
  Li+  Li4  1  0.29400000  0.37500000  0.23900000  1.0
  Li+  Li4  1  0.29400000  0.87500000  0.23900000  1.0
  Li+  Li5  1  0.29400000  0.37500000  0.73900000  1.0
  Li+  Li5  1  0.29400000  0.87500000  0.73900000  1.0
  Li+  Li6  1  0.92600000  0.37500000  0.16850000  1.0
  Li+  Li6  1  0.92600000  0.87500000  0.16850000  1.0
  Li+  Li7  1  0.92600000  0.37500000  0.66850000  1.0
  Li+  Li7  1  0.92600000  0.87500000  0.66850000  1.0
  Li+  Li8  1  0.42600000  0.37500000  0.08150000  1.0
  Li+  Li8  1  0.42600000  0.87500000  0.08150000  1.0
  Li+  Li9  1  0.42600000  0.37500000  0.58150000  1.0
  Li+  Li9  1  0.42600000  0.87500000  0.58150000  1.0
  Li+  Li10  1  0.07400000  0.12500000  0.33150000  1.0
  Li+  Li10  1  0.07400000  0.62500000  0.33150000  1.0
  Li+  Li11  1  0.07400000  0.12500000  0.83150000  1.0
  Li+  Li11  1  0.07400000  0.62500000  0.83150000  1.0
  Li+  Li12  1  0.57400000  0.12500000  0.41850000  1.0
  Li+  Li12  1  0.57400000  0.62500000  0.41850000  1.0
  Li+  Li13  1  0.57400000  0.12500000  0.91850000  1.0
  Li+  Li13  1  0.57400000  0.62500000  0.91850000  1.0
  Li+  Li14  1  0.16530000  0.25115000  0.16485000  1.0
  Li+  Li14  1  0.16530000  0.75115000  0.16485000  1.0
  Li+  Li15  1  0.16530000  0.25115000  0.66485000  1.0
  Li+  Li15  1  0.16530000  0.75115000  0.66485000  1.0
  Li+  Li16  1  0.33470000  0.24885000  0.41485000  1.0
  Li+  Li16  1  0.33470000  0.74885000  0.41485000  1.0
  Li+  Li17  1  0.33470000  0.24885000  0.91485000  1.0
  Li+  Li17  1  0.33470000  0.74885000  0.91485000  1.0
  Li+  Li18  1  0.83470000  0.00115000  0.33515000  1.0
  Li+  Li18  1  0.83470000  0.50115000  0.33515000  1.0
  Li+  Li19  1  0.83470000  0.00115000  0.83515000  1.0
  Li+  Li19  1  0.83470000  0.50115000  0.83515000  1.0
  Li+  Li20  1  0.33470000  0.00115000  0.41485000  1.0
  Li+  Li20  1  0.33470000  0.50115000  0.41485000  1.0
  Li+  Li21  1  0.33470000  0.00115000  0.91485000  1.0
  Li+  Li21  1  0.33470000  0.50115000  0.91485000  1.0
  Li+  Li22  1  0.83470000  0.24885000  0.33515000  1.0
  Li+  Li22  1  0.83470000  0.74885000  0.33515000  1.0
  Li+  Li23  1  0.83470000  0.24885000  0.83515000  1.0
  Li+  Li23  1  0.83470000  0.74885000  0.83515000  1.0
  Li+  Li24  1  0.66530000  0.25115000  0.08515000  1.0
  Li+  Li24  1  0.66530000  0.75115000  0.08515000  1.0
  Li+  Li25  1  0.66530000  0.25115000  0.58515000  1.0
  Li+  Li25  1  0.66530000  0.75115000  0.58515000  1.0
  Li+  Li26  1  0.16530000  0.49885000  0.16485000  1.0
  Li+  Li26  1  0.16530000  0.99885000  0.16485000  1.0
  Li+  Li27  1  0.16530000  0.49885000  0.66485000  1.0
  Li+  Li27  1  0.16530000  0.99885000  0.66485000  1.0
  Zn2+  Zn28  1  0.66530000  0.49885000  0.08515000  1.0
  Zn2+  Zn28  1  0.66530000  0.99885000  0.08515000  1.0
  Zn2+  Zn29  1  0.66530000  0.49885000  0.58515000  1.0
  Zn2+  Zn29  1  0.66530000  0.99885000  0.58515000  1.0
  Ge4+  Ge1  1  0.91310000  0.12500000  0.08020000  1.0
  Ge4+  Ge1  1  0.91310000  0.62500000  0.08020000  1.0
  Ge4+  Ge1  1  0.91310000  0.12500000  0.58020000  1.0
  Ge4+  Ge1  1  0.91310000  0.62500000  0.58020000  1.0
  Ge4+  Ge1  1  0.41310000  0.12500000  0.16980000  1.0
  Ge4+  Ge1  1  0.41310000  0.62500000  0.16980000  1.0
  Ge4+  Ge1  1  0.41310000  0.12500000  0.66980000  1.0
  Ge4+  Ge1  1  0.41310000  0.62500000  0.66980000  1.0
  Ge4+  Ge1  1  0.08690000  0.37500000  0.41980000  1.0
  Ge4+  Ge1  1  0.08690000  0.87500000  0.41980000  1.0
  Ge4+  Ge1  1  0.08690000  0.37500000  0.91980000  1.0
  Ge4+  Ge1  1  0.08690000  0.87500000  0.91980000  1.0
  Ge4+  Ge1  1  0.58690000  0.37500000  0.33020000  1.0
  Ge4+  Ge1  1  0.58690000  0.87500000  0.33020000  1.0
  Ge4+  Ge1  1  0.58690000  0.37500000  0.83020000  1.0
  Ge4+  Ge1  1  0.58690000  0.87500000  0.83020000  1.0
  O2-  O1  1  0.83530000  0.01225000  0.14075000  1.0
  O2-  O1  1  0.83530000  0.51225000  0.14075000  1.0
  O2-  O1  1  0.83530000  0.01225000  0.64075000  1.0
  O2-  O1  1  0.83530000  0.51225000  0.64075000  1.0
  O2-  O1  1  0.33530000  0.23775000  0.10925000  1.0
  O2-  O1  1  0.33530000  0.73775000  0.10925000  1.0
  O2-  O1  1  0.33530000  0.23775000  0.60925000  1.0
  O2-  O1  1  0.33530000  0.73775000  0.60925000  1.0
  O2-  O1  1  0.16470000  0.26225000  0.35925000  1.0
  O2-  O1  1  0.16470000  0.76225000  0.35925000  1.0
  O2-  O1  1  0.16470000  0.26225000  0.85925000  1.0
  O2-  O1  1  0.16470000  0.76225000  0.85925000  1.0
  O2-  O1  1  0.66470000  0.48775000  0.39075000  1.0
  O2-  O1  1  0.66470000  0.98775000  0.39075000  1.0
  O2-  O1  1  0.66470000  0.48775000  0.89075000  1.0
  O2-  O1  1  0.66470000  0.98775000  0.89075000  1.0
  O2-  O1  1  0.16470000  0.48775000  0.35925000  1.0
  O2-  O1  1  0.16470000  0.98775000  0.35925000  1.0
  O2-  O1  1  0.16470000  0.48775000  0.85925000  1.0
  O2-  O1  1  0.16470000  0.98775000  0.85925000  1.0
  O2-  O1  1  0.66470000  0.26225000  0.39075000  1.0
  O2-  O1  1  0.66470000  0.76225000  0.39075000  1.0
  O2-  O1  1  0.66470000  0.26225000  0.89075000  1.0
  O2-  O1  1  0.66470000  0.76225000  0.89075000  1.0
  O2-  O1  1  0.83530000  0.23775000  0.14075000  1.0
  O2-  O1  1  0.83530000  0.73775000  0.14075000  1.0
  O2-  O1  1  0.83530000  0.23775000  0.64075000  1.0
  O2-  O1  1  0.83530000  0.73775000  0.64075000  1.0
  O2-  O1  1  0.33530000  0.01225000  0.10925000  1.0
  O2-  O1  1  0.33530000  0.51225000  0.10925000  1.0
  O2-  O1  1  0.33530000  0.01225000  0.60925000  1.0
  O2-  O1  1  0.33530000  0.51225000  0.60925000  1.0
  O2-  O2  1  0.58800000  0.37500000  0.16110000  1.0
  O2-  O2  1  0.58800000  0.87500000  0.16110000  1.0
  O2-  O2  1  0.58800000  0.37500000  0.66110000  1.0
  O2-  O2  1  0.58800000  0.87500000  0.66110000  1.0
  O2-  O2  1  0.08800000  0.37500000  0.08890000  1.0
  O2-  O2  1  0.08800000  0.87500000  0.08890000  1.0
  O2-  O2  1  0.08800000  0.37500000  0.58890000  1.0
  O2-  O2  1  0.08800000  0.87500000  0.58890000  1.0
  O2-  O2  1  0.41200000  0.12500000  0.33890000  1.0
  O2-  O2  1  0.41200000  0.62500000  0.33890000  1.0
  O2-  O2  1  0.41200000  0.12500000  0.83890000  1.0
  O2-  O2  1  0.41200000  0.62500000  0.83890000  1.0
  O2-  O2  1  0.91200000  0.12500000  0.41110000  1.0
  O2-  O2  1  0.91200000  0.62500000  0.41110000  1.0
  O2-  O2  1  0.91200000  0.12500000  0.91110000  1.0
  O2-  O2  1  0.91200000  0.62500000  0.91110000  1.0
  O2-  O3  1  0.56330000  0.12500000  0.11055000  1.0
  O2-  O3  1  0.56330000  0.62500000  0.11055000  1.0
  O2-  O3  1  0.56330000  0.12500000  0.61055000  1.0
  O2-  O3  1  0.56330000  0.62500000  0.61055000  1.0
  O2-  O3  1  0.06330000  0.12500000  0.13945000  1.0
  O2-  O3  1  0.06330000  0.62500000  0.13945000  1.0
  O2-  O3  1  0.06330000  0.12500000  0.63945000  1.0
  O2-  O3  1  0.06330000  0.62500000  0.63945000  1.0
  O2-  O3  1  0.43670000  0.37500000  0.38945000  1.0
  O2-  O3  1  0.43670000  0.87500000  0.38945000  1.0
  O2-  O3  1  0.43670000  0.37500000  0.88945000  1.0
  O2-  O3  1  0.43670000  0.87500000  0.88945000  1.0
  O2-  O3  1  0.93670000  0.37500000  0.36055000  1.0
  O2-  O3  1  0.93670000  0.87500000  0.36055000  1.0
  O2-  O3  1  0.93670000  0.37500000  0.86055000  1.0
  O2-  O3  1  0.93670000  0.87500000  0.86055000  1.0
