# generated using pymatgen
data_Li2Mg2(MoO4)3
_symmetry_space_group_name_H-M   'P 1'
_cell_length_a   10.23340000
_cell_length_b   10.46460000
_cell_length_c   17.62280000
_cell_angle_alpha   90.00000000
_cell_angle_beta   90.00000000
_cell_angle_gamma   90.00000000
_symmetry_Int_Tables_number   1
_chemical_formula_structural   Li2Mg2(MoO4)3
_chemical_formula_sum   'Li16 Mg16 Mo24 O96'
_cell_volume   1887.19811884
_cell_formula_units_Z   8
loop_
 _symmetry_equiv_pos_site_id
 _symmetry_equiv_pos_as_xyz
  1  'x, y, z'
loop_
 _atom_type_symbol
 _atom_type_oxidation_number
  Li+  1.0
  Mg2+  2.0
  Mo6+  6.0
  O2-  -2.0
loop_
 _atom_site_type_symbol
 _atom_site_label
 _atom_site_symmetry_multiplicity
 _atom_site_fract_x
 _atom_site_fract_y
 _atom_site_fract_z
 _atom_site_occupancy
  Li+  Li0  1  0.12165000  0.25000000  0.69870000  1.0
  Li+  Li0  1  0.62165000  0.25000000  0.69870000  1.0
  Li+  Li1  1  0.37165000  0.25000000  0.80130000  1.0
  Li+  Li1  1  0.87165000  0.25000000  0.80130000  1.0
  Li+  Li2  1  0.37835000  0.75000000  0.30130000  1.0
  Li+  Li2  1  0.87835000  0.75000000  0.30130000  1.0
  Li+  Li3  1  0.44920000  0.25000000  0.25080000  1.0
  Li+  Li3  1  0.94920000  0.25000000  0.25080000  1.0
  Li+  Li4  1  0.05080000  0.75000000  0.74920000  1.0
  Li+  Li4  1  0.55080000  0.75000000  0.74920000  1.0
  Li+  Li5  1  0.37355000  0.57500000  0.47230000  1.0
  Li+  Li5  1  0.87355000  0.57500000  0.47230000  1.0
  Li+  Li6  1  0.12355000  0.92500000  0.02770000  1.0
  Li+  Li6  1  0.62355000  0.92500000  0.02770000  1.0
  Li+  Li7  1  0.12355000  0.57500000  0.02770000  1.0
  Li+  Li7  1  0.62355000  0.57500000  0.02770000  1.0
  Mg2+  Mg8  1  0.12835000  0.75000000  0.19870000  1.0
  Mg2+  Mg8  1  0.62835000  0.75000000  0.19870000  1.0
  Mg2+  Mg9  1  0.19920000  0.25000000  0.24920000  1.0
  Mg2+  Mg9  1  0.69920000  0.25000000  0.24920000  1.0
  Mg2+  Mg10  1  0.30080000  0.75000000  0.75080000  1.0
  Mg2+  Mg10  1  0.80080000  0.75000000  0.75080000  1.0
  Mg2+  Mg11  1  0.12645000  0.07500000  0.52770000  1.0
  Mg2+  Mg11  1  0.62645000  0.07500000  0.52770000  1.0
  Mg2+  Mg12  1  0.37645000  0.42500000  0.97230000  1.0
  Mg2+  Mg12  1  0.87645000  0.42500000  0.97230000  1.0
  Mg2+  Mg13  1  0.37355000  0.92500000  0.47230000  1.0
  Mg2+  Mg13  1  0.87355000  0.92500000  0.47230000  1.0
  Mg2+  Mg14  1  0.12645000  0.42500000  0.52770000  1.0
  Mg2+  Mg14  1  0.62645000  0.42500000  0.52770000  1.0
  Mg2+  Mg15  1  0.37645000  0.07500000  0.97230000  1.0
  Mg2+  Mg15  1  0.87645000  0.07500000  0.97230000  1.0
  Mo6+  Mo1  1  0.36022000  0.25000000  0.44312000  1.0
  Mo6+  Mo1  1  0.86022000  0.25000000  0.44312000  1.0
  Mo6+  Mo1  1  0.11022000  0.25000000  0.05688000  1.0
  Mo6+  Mo1  1  0.61022000  0.25000000  0.05688000  1.0
  Mo6+  Mo1  1  0.13978000  0.75000000  0.55688000  1.0
  Mo6+  Mo1  1  0.63978000  0.75000000  0.55688000  1.0
  Mo6+  Mo1  1  0.38978000  0.75000000  0.94312000  1.0
  Mo6+  Mo1  1  0.88978000  0.75000000  0.94312000  1.0
  Mo6+  Mo2  1  0.38777000  0.02686000  0.65662000  1.0
  Mo6+  Mo2  1  0.88777000  0.02686000  0.65662000  1.0
  Mo6+  Mo2  1  0.13777000  0.47314000  0.84338000  1.0
  Mo6+  Mo2  1  0.63777000  0.47314000  0.84338000  1.0
  Mo6+  Mo2  1  0.11223000  0.52686000  0.34338000  1.0
  Mo6+  Mo2  1  0.61223000  0.52686000  0.34338000  1.0
  Mo6+  Mo2  1  0.36223000  0.97314000  0.15662000  1.0
  Mo6+  Mo2  1  0.86223000  0.97314000  0.15662000  1.0
  Mo6+  Mo2  1  0.11223000  0.97314000  0.34338000  1.0
  Mo6+  Mo2  1  0.61223000  0.97314000  0.34338000  1.0
  Mo6+  Mo2  1  0.36223000  0.52686000  0.15662000  1.0
  Mo6+  Mo2  1  0.86223000  0.52686000  0.15662000  1.0
  Mo6+  Mo2  1  0.38777000  0.47314000  0.65662000  1.0
  Mo6+  Mo2  1  0.88777000  0.47314000  0.65662000  1.0
  Mo6+  Mo2  1  0.13777000  0.02686000  0.84338000  1.0
  Mo6+  Mo2  1  0.63777000  0.02686000  0.84338000  1.0
  O2-  O1  1  0.02890000  0.11300000  0.62710000  1.0
  O2-  O1  1  0.52890000  0.11300000  0.62710000  1.0
  O2-  O1  1  0.27890000  0.38700000  0.87290000  1.0
  O2-  O1  1  0.77890000  0.38700000  0.87290000  1.0
  O2-  O1  1  0.47110000  0.61300000  0.37290000  1.0
  O2-  O1  1  0.97110000  0.61300000  0.37290000  1.0
  O2-  O1  1  0.22110000  0.88700000  0.12710000  1.0
  O2-  O1  1  0.72110000  0.88700000  0.12710000  1.0
  O2-  O1  1  0.47110000  0.88700000  0.37290000  1.0
  O2-  O1  1  0.97110000  0.88700000  0.37290000  1.0
  O2-  O1  1  0.22110000  0.61300000  0.12710000  1.0
  O2-  O1  1  0.72110000  0.61300000  0.12710000  1.0
  O2-  O1  1  0.02890000  0.38700000  0.62710000  1.0
  O2-  O1  1  0.52890000  0.38700000  0.62710000  1.0
  O2-  O1  1  0.27890000  0.11300000  0.87290000  1.0
  O2-  O1  1  0.77890000  0.11300000  0.87290000  1.0
  O2-  O2  1  0.32225000  0.25000000  0.34660000  1.0
  O2-  O2  1  0.82225000  0.25000000  0.34660000  1.0
  O2-  O2  1  0.07225000  0.25000000  0.15340000  1.0
  O2-  O2  1  0.57225000  0.25000000  0.15340000  1.0
  O2-  O2  1  0.17775000  0.75000000  0.65340000  1.0
  O2-  O2  1  0.67775000  0.75000000  0.65340000  1.0
  O2-  O2  1  0.42775000  0.75000000  0.84660000  1.0
  O2-  O2  1  0.92775000  0.75000000  0.84660000  1.0
  O2-  O3  1  0.45875000  0.11590000  0.46360000  1.0
  O2-  O3  1  0.95875000  0.11590000  0.46360000  1.0
  O2-  O3  1  0.20875000  0.38410000  0.03640000  1.0
  O2-  O3  1  0.70875000  0.38410000  0.03640000  1.0
  O2-  O3  1  0.04125000  0.61590000  0.53640000  1.0
  O2-  O3  1  0.54125000  0.61590000  0.53640000  1.0
  O2-  O3  1  0.29125000  0.88410000  0.96360000  1.0
  O2-  O3  1  0.79125000  0.88410000  0.96360000  1.0
  O2-  O3  1  0.04125000  0.88410000  0.53640000  1.0
  O2-  O3  1  0.54125000  0.88410000  0.53640000  1.0
  O2-  O3  1  0.29125000  0.61590000  0.96360000  1.0
  O2-  O3  1  0.79125000  0.61590000  0.96360000  1.0
  O2-  O3  1  0.45875000  0.38410000  0.46360000  1.0
  O2-  O3  1  0.95875000  0.38410000  0.46360000  1.0
  O2-  O3  1  0.20875000  0.11590000  0.03640000  1.0
  O2-  O3  1  0.70875000  0.11590000  0.03640000  1.0
  O2-  O4  1  0.22140000  0.25000000  0.50520000  1.0
  O2-  O4  1  0.72140000  0.25000000  0.50520000  1.0
  O2-  O4  1  0.47140000  0.25000000  0.99480000  1.0
  O2-  O4  1  0.97140000  0.25000000  0.99480000  1.0
  O2-  O4  1  0.27860000  0.75000000  0.49480000  1.0
  O2-  O4  1  0.77860000  0.75000000  0.49480000  1.0
  O2-  O4  1  0.02860000  0.75000000  0.00520000  1.0
  O2-  O4  1  0.52860000  0.75000000  0.00520000  1.0
  O2-  O5  1  0.42550000  0.88360000  0.70500000  1.0
  O2-  O5  1  0.92550000  0.88360000  0.70500000  1.0
  O2-  O5  1  0.17550000  0.61640000  0.79500000  1.0
  O2-  O5  1  0.67550000  0.61640000  0.79500000  1.0
  O2-  O5  1  0.07450000  0.38360000  0.29500000  1.0
  O2-  O5  1  0.57450000  0.38360000  0.29500000  1.0
  O2-  O5  1  0.32450000  0.11640000  0.20500000  1.0
  O2-  O5  1  0.82450000  0.11640000  0.20500000  1.0
  O2-  O5  1  0.07450000  0.11640000  0.29500000  1.0
  O2-  O5  1  0.57450000  0.11640000  0.29500000  1.0
  O2-  O5  1  0.32450000  0.38360000  0.20500000  1.0
  O2-  O5  1  0.82450000  0.38360000  0.20500000  1.0
  O2-  O5  1  0.42550000  0.61640000  0.70500000  1.0
  O2-  O5  1  0.92550000  0.61640000  0.70500000  1.0
  O2-  O5  1  0.17550000  0.88360000  0.79500000  1.0
  O2-  O5  1  0.67550000  0.88360000  0.79500000  1.0
  O2-  O6  1  0.29065000  0.99050000  0.57530000  1.0
  O2-  O6  1  0.79065000  0.99050000  0.57530000  1.0
  O2-  O6  1  0.04065000  0.50950000  0.92470000  1.0
  O2-  O6  1  0.54065000  0.50950000  0.92470000  1.0
  O2-  O6  1  0.20935000  0.49050000  0.42470000  1.0
  O2-  O6  1  0.70935000  0.49050000  0.42470000  1.0
  O2-  O6  1  0.45935000  0.00950000  0.07530000  1.0
  O2-  O6  1  0.95935000  0.00950000  0.07530000  1.0
  O2-  O6  1  0.20935000  0.00950000  0.42470000  1.0
  O2-  O6  1  0.70935000  0.00950000  0.42470000  1.0
  O2-  O6  1  0.45935000  0.49050000  0.07530000  1.0
  O2-  O6  1  0.95935000  0.49050000  0.07530000  1.0
  O2-  O6  1  0.29065000  0.50950000  0.57530000  1.0
  O2-  O6  1  0.79065000  0.50950000  0.57530000  1.0
  O2-  O6  1  0.04065000  0.99050000  0.92470000  1.0
  O2-  O6  1  0.54065000  0.99050000  0.92470000  1.0
  O2-  O7  1  0.28860000  0.12420000  0.71320000  1.0
  O2-  O7  1  0.78860000  0.12420000  0.71320000  1.0
  O2-  O7  1  0.03860000  0.37580000  0.78680000  1.0
  O2-  O7  1  0.53860000  0.37580000  0.78680000  1.0
  O2-  O7  1  0.21140000  0.62420000  0.28680000  1.0
  O2-  O7  1  0.71140000  0.62420000  0.28680000  1.0
  O2-  O7  1  0.46140000  0.87580000  0.21320000  1.0
  O2-  O7  1  0.96140000  0.87580000  0.21320000  1.0
  O2-  O7  1  0.21140000  0.87580000  0.28680000  1.0
  O2-  O7  1  0.71140000  0.87580000  0.28680000  1.0
  O2-  O7  1  0.46140000  0.62420000  0.21320000  1.0
  O2-  O7  1  0.96140000  0.62420000  0.21320000  1.0
  O2-  O7  1  0.28860000  0.37580000  0.71320000  1.0
  O2-  O7  1  0.78860000  0.37580000  0.71320000  1.0
  O2-  O7  1  0.03860000  0.12420000  0.78680000  1.0
  O2-  O7  1  0.53860000  0.12420000  0.78680000  1.0
