# generated using pymatgen
data_Li5AlO4
_symmetry_space_group_name_H-M   'P 1'
_cell_length_a   9.24600000
_cell_length_b   12.84800000
_cell_length_c   12.61000000
_cell_angle_alpha   90.00000000
_cell_angle_beta   90.00000000
_cell_angle_gamma   90.00000000
_symmetry_Int_Tables_number   1
_chemical_formula_structural   Li5AlO4
_chemical_formula_sum   'Li80 Al16 O64'
_cell_volume   1497.97478688
_cell_formula_units_Z   16
loop_
 _symmetry_equiv_pos_site_id
 _symmetry_equiv_pos_as_xyz
  1  'x, y, z'
loop_
 _atom_type_symbol
 _atom_type_oxidation_number
  Li+  1.0
  Al3+  3.0
  O2-  -2.0
loop_
 _atom_site_type_symbol
 _atom_site_label
 _atom_site_symmetry_multiplicity
 _atom_site_fract_x
 _atom_site_fract_y
 _atom_site_fract_z
 _atom_site_occupancy
  Li+  Li0  1  0.38638784  0.78101018  0.51670120  1.0
  Li+  Li1  1  0.38200000  0.28250000  0.51300000  1.0
  Li+  Li2  1  0.38200000  0.78250000  0.01300000  1.0
  Li+  Li3  1  0.37990988  0.28351088  0.01382446  1.0
  Li+  Li4  1  0.88200000  0.78250000  0.51300000  1.0
  Li+  Li5  1  0.88200000  0.28250000  0.51300000  1.0
  Li+  Li6  1  0.88200000  0.78250000  0.01300000  1.0
  Li+  Li7  1  0.88200000  0.28250000  0.01300000  1.0
  Li+  Li8  1  0.38087032  0.96652124  0.51474788  1.0
  Li+  Li9  1  0.38200000  0.46750000  0.51300000  1.0
  Li+  Li10  1  0.38200000  0.96750000  0.01300000  1.0
  Li+  Li11  1  0.38200000  0.46750000  0.01300000  1.0
  Li+  Li12  1  0.88200000  0.96750000  0.51300000  1.0
  Li+  Li13  1  0.88332807  0.46575196  0.51147460  1.0
  Li+  Li14  1  0.88200000  0.96750000  0.01300000  1.0
  Li+  Li15  1  0.88200000  0.46750000  0.01300000  1.0
  Li+  Li16  1  0.38200000  0.78250000  0.73700000  1.0
  Li+  Li17  1  0.38200000  0.28250000  0.73700000  1.0
  Li+  Li18  1  0.37986527  0.78200580  0.23449476  1.0
  Li+  Li19  1  0.38200000  0.28250000  0.23700000  1.0
  Li+  Li20  1  0.88093962  0.78410427  0.73971778  1.0
  Li+  Li21  1  0.88200000  0.28250000  0.73700000  1.0
  Li+  Li22  1  0.88228931  0.78140195  0.23534868  1.0
  Li+  Li23  1  0.88143934  0.28020652  0.23983258  1.0
  Li+  Li24  1  0.38200000  0.96750000  0.73700000  1.0
  Li+  Li25  1  0.38200000  0.46750000  0.73700000  1.0
  Li+  Li26  1  0.38200000  0.96750000  0.23700000  1.0
  Li+  Li27  1  0.38200000  0.46750000  0.23700000  1.0
  Li+  Li28  1  0.88200000  0.96750000  0.73700000  1.0
  Li+  Li29  1  0.88200000  0.46750000  0.73700000  1.0
  Li+  Li30  1  0.88200000  0.96750000  0.23700000  1.0
  Li+  Li31  1  0.88200000  0.46750000  0.23700000  1.0
  Li+  Li32  1  0.11950505  0.71951228  0.48600864  1.0
  Li+  Li33  1  0.11800000  0.21750000  0.48700000  1.0
  Li+  Li34  1  0.11939771  0.71596354  0.98643804  1.0
  Li+  Li35  1  0.11800000  0.21750000  0.98700000  1.0
  Li+  Li36  1  0.61800000  0.71750000  0.48700000  1.0
  Li+  Li37  1  0.61865898  0.22094488  0.48888699  1.0
  Li+  Li38  1  0.61766011  0.71980525  0.99191990  1.0
  Li+  Li39  1  0.61800000  0.21750000  0.98700000  1.0
  Li+  Li40  1  0.11642933  0.52504579  0.48610748  1.0
  Li+  Li41  1  0.11800000  0.03250000  0.48700000  1.0
  Li+  Li42  1  0.12163546  0.53492624  0.98938298  1.0
  Li+  Li43  1  0.11800000  0.03250000  0.98700000  1.0
  Li+  Li44  1  0.61800000  0.53250000  0.48700000  1.0
  Li+  Li45  1  0.61800000  0.03250000  0.48700000  1.0
  Li+  Li46  1  0.61392462  0.53158596  0.98853366  1.0
  Li+  Li47  1  0.61800000  0.03250000  0.98700000  1.0
  Li+  Li48  1  0.11800000  0.71750000  0.26300000  1.0
  Li+  Li49  1  0.11800000  0.21750000  0.26300000  1.0
  Li+  Li50  1  0.11800000  0.71750000  0.76300000  1.0
  Li+  Li51  1  0.11800000  0.21750000  0.76300000  1.0
  Li+  Li52  1  0.61800000  0.71750000  0.26300000  1.0
  Li+  Li53  1  0.61800000  0.21750000  0.26300000  1.0
  Li+  Li54  1  0.61800000  0.71750000  0.76300000  1.0
  Li+  Li55  1  0.62299032  0.21698895  0.76640862  1.0
  Li+  Li56  1  0.11800000  0.53250000  0.26300000  1.0
  Li+  Li57  1  0.11800000  0.03250000  0.26300000  1.0
  Li+  Li58  1  0.11800000  0.53250000  0.76300000  1.0
  Li+  Li59  1  0.11800000  0.03250000  0.76300000  1.0
  Li+  Li60  1  0.62055071  0.53212438  0.26854534  1.0
  Li+  Li61  1  0.61800000  0.03250000  0.26300000  1.0
  Li+  Li62  1  0.61800000  0.53250000  0.76300000  1.0
  Li+  Li63  1  0.61975515  0.03768651  0.76517887  1.0
  Li+  Li64  1  0.37850000  0.87500000  0.37500000  1.0
  Li+  Li65  1  0.37850000  0.37500000  0.37500000  1.0
  Li+  Li66  1  0.37850000  0.87500000  0.87500000  1.0
  Li+  Li67  1  0.37850000  0.37500000  0.87500000  1.0
  Li+  Li68  1  0.87850000  0.87500000  0.37500000  1.0
  Li+  Li69  1  0.87850000  0.37500000  0.37500000  1.0
  Li+  Li70  1  0.87850000  0.87500000  0.87500000  1.0
  Li+  Li71  1  0.87850000  0.37500000  0.87500000  1.0
  Li+  Li72  1  0.12150000  0.62500000  0.62500000  1.0
  Li+  Li73  1  0.12150000  0.12500000  0.62500000  1.0
  Li+  Li74  1  0.12150000  0.62500000  0.12500000  1.0
  Li+  Li75  1  0.12150000  0.12500000  0.12500000  1.0
  Li+  Li76  1  0.62080585  0.62363992  0.63002060  1.0
  Li+  Li77  1  0.62150000  0.12500000  0.62500000  1.0
  Li+  Li78  1  0.62150000  0.62500000  0.12500000  1.0
  Li+  Li79  1  0.62150000  0.12500000  0.12500000  1.0
  Al3+  Al80  1  0.11500000  0.87500000  0.62500000  1.0
  Al3+  Al81  1  0.11500000  0.37500000  0.62500000  1.0
  Al3+  Al82  1  0.11500000  0.87500000  0.12500000  1.0
  Al3+  Al83  1  0.11694015  0.37488363  0.12452419  1.0
  Al3+  Al84  1  0.61191974  0.87527749  0.63093206  1.0
  Al3+  Al85  1  0.61500000  0.37500000  0.62500000  1.0
  Al3+  Al86  1  0.61500000  0.87500000  0.12500000  1.0
  Al3+  Al87  1  0.61500000  0.37500000  0.12500000  1.0
  Al3+  Al88  1  0.38500000  0.62500000  0.37500000  1.0
  Al3+  Al89  1  0.38500000  0.12500000  0.37500000  1.0
  Al3+  Al90  1  0.38398968  0.62321558  0.88015070  1.0
  Al3+  Al91  1  0.38500000  0.12500000  0.87500000  1.0
  Al3+  Al92  1  0.88500000  0.62500000  0.37500000  1.0
  Al3+  Al93  1  0.88500000  0.12500000  0.37500000  1.0
  Al3+  Al94  1  0.88500000  0.62500000  0.87500000  1.0
  Al3+  Al95  1  0.88500000  0.12500000  0.87500000  1.0
  O2-  O96  1  0.00000000  0.87500000  0.50825000  1.0
  O2-  O97  1  0.00000000  0.37500000  0.50825000  1.0
  O2-  O98  1  0.00000000  0.87500000  0.00825000  1.0
  O2-  O99  1  0.00000000  0.37500000  0.00825000  1.0
  O2-  O100  1  0.50000000  0.87500000  0.50825000  1.0
  O2-  O101  1  0.50000000  0.37500000  0.50825000  1.0
  O2-  O102  1  0.49851608  0.87409416  0.00476805  1.0
  O2-  O103  1  0.49679728  0.37575952  0.01133254  1.0
  O2-  O104  1  0.00000000  0.87500000  0.74175000  1.0
  O2-  O105  1  0.00168960  0.37162219  0.73759072  1.0
  O2-  O106  1  0.99590048  0.87651707  0.24257367  1.0
  O2-  O107  1  0.00000000  0.37500000  0.24175000  1.0
  O2-  O108  1  0.50000000  0.87500000  0.74175000  1.0
  O2-  O109  1  0.49940819  0.37556939  0.74261483  1.0
  O2-  O110  1  0.50000000  0.87500000  0.24175000  1.0
  O2-  O111  1  0.50000000  0.37500000  0.24175000  1.0
  O2-  O112  1  0.00220332  0.62321738  0.48549735  1.0
  O2-  O113  1  0.00000000  0.12500000  0.49175000  1.0
  O2-  O114  1  0.00000000  0.62500000  0.99175000  1.0
  O2-  O115  1  0.00000000  0.12500000  0.99175000  1.0
  O2-  O116  1  0.50000000  0.62500000  0.49175000  1.0
  O2-  O117  1  0.50000000  0.12500000  0.49175000  1.0
  O2-  O118  1  0.50000000  0.62500000  0.99175000  1.0
  O2-  O119  1  0.50000000  0.12500000  0.99175000  1.0
  O2-  O120  1  0.49883501  0.62934609  0.26282277  1.0
  O2-  O121  1  0.50000000  0.12500000  0.25825000  1.0
  O2-  O122  1  0.50000000  0.62500000  0.75825000  1.0
  O2-  O123  1  0.49930793  0.12401844  0.75788370  1.0
  O2-  O124  1  0.00000000  0.62500000  0.25825000  1.0
  O2-  O125  1  0.99767117  0.12430556  0.26043634  1.0
  O2-  O126  1  0.00000000  0.62500000  0.75825000  1.0
  O2-  O127  1  0.00000000  0.12500000  0.75825000  1.0
  O2-  O128  1  0.20800000  0.75885000  0.62500000  1.0
  O2-  O129  1  0.20800000  0.25885000  0.62500000  1.0
  O2-  O130  1  0.20800000  0.75885000  0.12500000  1.0
  O2-  O131  1  0.20800000  0.25885000  0.12500000  1.0
  O2-  O132  1  0.70935993  0.76098888  0.62449010  1.0
  O2-  O133  1  0.70800000  0.25885000  0.62500000  1.0
  O2-  O134  1  0.70359999  0.76050348  0.12678646  1.0
  O2-  O135  1  0.70800000  0.25885000  0.12500000  1.0
  O2-  O136  1  0.20640810  0.98904164  0.62888159  1.0
  O2-  O137  1  0.20800000  0.49115000  0.62500000  1.0
  O2-  O138  1  0.20800000  0.99115000  0.12500000  1.0
  O2-  O139  1  0.20800000  0.49115000  0.12500000  1.0
  O2-  O140  1  0.70800000  0.99115000  0.62500000  1.0
  O2-  O141  1  0.70800000  0.49115000  0.62500000  1.0
  O2-  O142  1  0.70800000  0.99115000  0.12500000  1.0
  O2-  O143  1  0.70523853  0.48981696  0.12445391  1.0
  O2-  O144  1  0.29200000  0.74115000  0.37500000  1.0
  O2-  O145  1  0.28981695  0.23839273  0.37385091  1.0
  O2-  O146  1  0.29222611  0.74038673  0.87258417  1.0
  O2-  O147  1  0.29200000  0.24115000  0.87500000  1.0
  O2-  O148  1  0.79200000  0.74115000  0.37500000  1.0
  O2-  O149  1  0.79200000  0.24115000  0.37500000  1.0
  O2-  O150  1  0.79200000  0.74115000  0.87500000  1.0
  O2-  O151  1  0.79200000  0.24115000  0.87500000  1.0
  O2-  O152  1  0.29200000  0.50885000  0.37500000  1.0
  O2-  O153  1  0.29200000  0.00885000  0.37500000  1.0
  O2-  O154  1  0.29200000  0.50885000  0.87500000  1.0
  O2-  O155  1  0.29200000  0.00885000  0.87500000  1.0
  O2-  O156  1  0.78969393  0.50987719  0.37839172  1.0
  O2-  O157  1  0.78971107  0.00644252  0.37640883  1.0
  O2-  O158  1  0.79200000  0.50885000  0.87500000  1.0
  O2-  O159  1  0.79229790  0.01230599  0.87340907  1.0
