# generated using pymatgen
data_Li5AlO4
_symmetry_space_group_name_H-M   'P 1'
_cell_length_a   12.61528203
_cell_length_b   9.24987293
_cell_length_c   12.85338172
_cell_angle_alpha   90.00000000
_cell_angle_beta   90.00000000
_cell_angle_gamma   90.00000000
_symmetry_Int_Tables_number   1
_chemical_formula_structural   Li5AlO4
_chemical_formula_sum   'Li80 Al16 O64'
_cell_volume   1499.85797351
_cell_formula_units_Z   16
loop_
 _symmetry_equiv_pos_site_id
 _symmetry_equiv_pos_as_xyz
  1  'x, y, z'
loop_
 _atom_type_symbol
 _atom_type_oxidation_number
  Li+  1.0
  Al3+  3.0
  O2-  -2.0
loop_
 _atom_site_type_symbol
 _atom_site_label
 _atom_site_symmetry_multiplicity
 _atom_site_fract_x
 _atom_site_fract_y
 _atom_site_fract_z
 _atom_site_occupancy
  Li+  Li0  1  0.76300000  0.28466667  0.21750000  1.0
  Li+  Li1  1  0.76300000  0.28466667  0.71750000  1.0
  Li+  Li2  1  0.26300000  0.28466667  0.21750000  1.0
  Li+  Li3  1  0.26300000  0.28466667  0.71750000  1.0
  Li+  Li4  1  0.76300000  0.78466667  0.21750000  1.0
  Li+  Li5  1  0.76300000  0.78466667  0.71750000  1.0
  Li+  Li6  1  0.26300000  0.78466667  0.21750000  1.0
  Li+  Li7  1  0.26300000  0.78466667  0.71750000  1.0
  Li+  Li8  1  0.76300000  0.28466667  0.03250000  1.0
  Li+  Li9  1  0.76300000  0.28466667  0.53250000  1.0
  Li+  Li10  1  0.26300000  0.28466667  0.03250000  1.0
  Li+  Li11  1  0.26300000  0.28466667  0.53250000  1.0
  Li+  Li12  1  0.76300000  0.78466667  0.03250000  1.0
  Li+  Li13  1  0.76300000  0.78466667  0.53250000  1.0
  Li+  Li14  1  0.26300000  0.78466667  0.03250000  1.0
  Li+  Li15  1  0.26300000  0.78466667  0.53250000  1.0
  Li+  Li16  1  0.98700000  0.28466667  0.21750000  1.0
  Li+  Li17  1  0.98700000  0.28466667  0.71750000  1.0
  Li+  Li18  1  0.48700000  0.28466667  0.21750000  1.0
  Li+  Li19  1  0.48700000  0.28466667  0.71750000  1.0
  Li+  Li20  1  0.98700000  0.78466667  0.21750000  1.0
  Li+  Li21  1  0.98700000  0.78466667  0.71750000  1.0
  Li+  Li22  1  0.48700000  0.78466667  0.21750000  1.0
  Li+  Li23  1  0.48700000  0.78466667  0.71750000  1.0
  Li+  Li24  1  0.98700000  0.28466667  0.03250000  1.0
  Li+  Li25  1  0.98700000  0.28466667  0.53250000  1.0
  Li+  Li26  1  0.48700000  0.28466667  0.03250000  1.0
  Li+  Li27  1  0.48700000  0.28466667  0.53250000  1.0
  Li+  Li28  1  0.98700000  0.78466667  0.03250000  1.0
  Li+  Li29  1  0.98700000  0.78466667  0.53250000  1.0
  Li+  Li30  1  0.48700000  0.78466667  0.03250000  1.0
  Li+  Li31  1  0.48700000  0.78466667  0.53250000  1.0
  Li+  Li32  1  0.73700000  0.54866667  0.28250000  1.0
  Li+  Li33  1  0.73700000  0.54866667  0.78250000  1.0
  Li+  Li34  1  0.23700000  0.54866667  0.28250000  1.0
  Li+  Li35  1  0.23700000  0.54866667  0.78250000  1.0
  Li+  Li36  1  0.73700000  0.04866667  0.28250000  1.0
  Li+  Li37  1  0.73700000  0.04866667  0.78250000  1.0
  Li+  Li38  1  0.23700000  0.04866667  0.28250000  1.0
  Li+  Li39  1  0.23700000  0.04866667  0.78250000  1.0
  Li+  Li40  1  0.73700000  0.54866667  0.46750000  1.0
  Li+  Li41  1  0.73700000  0.54866667  0.96750000  1.0
  Li+  Li42  1  0.23700000  0.54866667  0.46750000  1.0
  Li+  Li43  1  0.23700000  0.54866667  0.96750000  1.0
  Li+  Li44  1  0.73700000  0.04866667  0.46750000  1.0
  Li+  Li45  1  0.73700000  0.04866667  0.96750000  1.0
  Li+  Li46  1  0.23700000  0.04866667  0.46750000  1.0
  Li+  Li47  1  0.23700000  0.04866667  0.96750000  1.0
  Li+  Li48  1  0.51300000  0.54866667  0.28250000  1.0
  Li+  Li49  1  0.51300000  0.54866667  0.78250000  1.0
  Li+  Li50  1  0.01300000  0.54866667  0.28250000  1.0
  Li+  Li51  1  0.01300000  0.54866667  0.78250000  1.0
  Li+  Li52  1  0.51300000  0.04866667  0.28250000  1.0
  Li+  Li53  1  0.51300000  0.04866667  0.78250000  1.0
  Li+  Li54  1  0.01300000  0.04866667  0.28250000  1.0
  Li+  Li55  1  0.01300000  0.04866667  0.78250000  1.0
  Li+  Li56  1  0.51300000  0.54866667  0.46750000  1.0
  Li+  Li57  1  0.51300000  0.54866667  0.96750000  1.0
  Li+  Li58  1  0.01300000  0.54866667  0.46750000  1.0
  Li+  Li59  1  0.01300000  0.54866667  0.96750000  1.0
  Li+  Li60  1  0.51300000  0.04866667  0.46750000  1.0
  Li+  Li61  1  0.51300000  0.04866667  0.96750000  1.0
  Li+  Li62  1  0.01300000  0.04866667  0.46750000  1.0
  Li+  Li63  1  0.01300000  0.04866667  0.96750000  1.0
  Li+  Li64  1  0.62500000  0.28816667  0.12500000  1.0
  Li+  Li65  1  0.62500000  0.28816667  0.62500000  1.0
  Li+  Li66  1  0.12500000  0.28816667  0.12500000  1.0
  Li+  Li67  1  0.12500000  0.28816667  0.62500000  1.0
  Li+  Li68  1  0.62500000  0.78816667  0.12500000  1.0
  Li+  Li69  1  0.62500000  0.78816667  0.62500000  1.0
  Li+  Li70  1  0.12500000  0.78816667  0.12500000  1.0
  Li+  Li71  1  0.12500000  0.78816667  0.62500000  1.0
  Li+  Li72  1  0.87500000  0.54516667  0.37500000  1.0
  Li+  Li73  1  0.87500000  0.54516667  0.87500000  1.0
  Li+  Li74  1  0.37500000  0.54516667  0.37500000  1.0
  Li+  Li75  1  0.37500000  0.54516667  0.87500000  1.0
  Li+  Li76  1  0.87500000  0.04516667  0.37500000  1.0
  Li+  Li77  1  0.87500000  0.04516667  0.87500000  1.0
  Li+  Li78  1  0.37500000  0.04516667  0.37500000  1.0
  Li+  Li79  1  0.37500000  0.04516667  0.87500000  1.0
  Al3+  Al80  1  0.87500000  0.55166667  0.12500000  1.0
  Al3+  Al81  1  0.87500000  0.55166667  0.62500000  1.0
  Al3+  Al82  1  0.37500000  0.55166667  0.12500000  1.0
  Al3+  Al83  1  0.37500000  0.55166667  0.62500000  1.0
  Al3+  Al84  1  0.87500000  0.05166667  0.12500000  1.0
  Al3+  Al85  1  0.87500000  0.05166667  0.62500000  1.0
  Al3+  Al86  1  0.37500000  0.05166667  0.12500000  1.0
  Al3+  Al87  1  0.37500000  0.05166667  0.62500000  1.0
  Al3+  Al88  1  0.62500000  0.28166667  0.37500000  1.0
  Al3+  Al89  1  0.62500000  0.28166667  0.87500000  1.0
  Al3+  Al90  1  0.12500000  0.28166667  0.37500000  1.0
  Al3+  Al91  1  0.12500000  0.28166667  0.87500000  1.0
  Al3+  Al92  1  0.62500000  0.78166667  0.37500000  1.0
  Al3+  Al93  1  0.62500000  0.78166667  0.87500000  1.0
  Al3+  Al94  1  0.12500000  0.78166667  0.37500000  1.0
  Al3+  Al95  1  0.12500000  0.78166667  0.87500000  1.0
  O2-  O96  1  0.75825000  0.66666667  0.12500000  1.0
  O2-  O97  1  0.75825000  0.66666667  0.62500000  1.0
  O2-  O98  1  0.25825000  0.66666667  0.12500000  1.0
  O2-  O99  1  0.25825000  0.66666667  0.62500000  1.0
  O2-  O100  1  0.75825000  0.16666667  0.12500000  1.0
  O2-  O101  1  0.75825000  0.16666667  0.62500000  1.0
  O2-  O102  1  0.25825000  0.16666667  0.12500000  1.0
  O2-  O103  1  0.25825000  0.16666667  0.62500000  1.0
  O2-  O104  1  0.99175000  0.66666667  0.12500000  1.0
  O2-  O105  1  0.99175000  0.66666667  0.62500000  1.0
  O2-  O106  1  0.49175000  0.66666667  0.12500000  1.0
  O2-  O107  1  0.49175000  0.66666667  0.62500000  1.0
  O2-  O108  1  0.99175000  0.16666667  0.12500000  1.0
  O2-  O109  1  0.99175000  0.16666667  0.62500000  1.0
  O2-  O110  1  0.49175000  0.16666667  0.12500000  1.0
  O2-  O111  1  0.49175000  0.16666667  0.62500000  1.0
  O2-  O112  1  0.74175000  0.66666667  0.37500000  1.0
  O2-  O113  1  0.74175000  0.66666667  0.87500000  1.0
  O2-  O114  1  0.24175000  0.66666667  0.37500000  1.0
  O2-  O115  1  0.24175000  0.66666667  0.87500000  1.0
  O2-  O116  1  0.74175000  0.16666667  0.37500000  1.0
  O2-  O117  1  0.74175000  0.16666667  0.87500000  1.0
  O2-  O118  1  0.24175000  0.16666667  0.37500000  1.0
  O2-  O119  1  0.24175000  0.16666667  0.87500000  1.0
  O2-  O120  1  0.50825000  0.16666667  0.37500000  1.0
  O2-  O121  1  0.50825000  0.16666667  0.87500000  1.0
  O2-  O122  1  0.00825000  0.16666667  0.37500000  1.0
  O2-  O123  1  0.00825000  0.16666667  0.87500000  1.0
  O2-  O124  1  0.50825000  0.66666667  0.37500000  1.0
  O2-  O125  1  0.50825000  0.66666667  0.87500000  1.0
  O2-  O126  1  0.00825000  0.66666667  0.37500000  1.0
  O2-  O127  1  0.00825000  0.66666667  0.87500000  1.0
  O2-  O128  1  0.87500000  0.45866667  0.24115000  1.0
  O2-  O129  1  0.87500000  0.45866667  0.74115000  1.0
  O2-  O130  1  0.37500000  0.45866667  0.24115000  1.0
  O2-  O131  1  0.37500000  0.45866667  0.74115000  1.0
  O2-  O132  1  0.87500000  0.95866667  0.24115000  1.0
  O2-  O133  1  0.87500000  0.95866667  0.74115000  1.0
  O2-  O134  1  0.37500000  0.95866667  0.24115000  1.0
  O2-  O135  1  0.37500000  0.95866667  0.74115000  1.0
  O2-  O136  1  0.87500000  0.45866667  0.00885000  1.0
  O2-  O137  1  0.87500000  0.45866667  0.50885000  1.0
  O2-  O138  1  0.37500000  0.45866667  0.00885000  1.0
  O2-  O139  1  0.37500000  0.45866667  0.50885000  1.0
  O2-  O140  1  0.87500000  0.95866667  0.00885000  1.0
  O2-  O141  1  0.87500000  0.95866667  0.50885000  1.0
  O2-  O142  1  0.37500000  0.95866667  0.00885000  1.0
  O2-  O143  1  0.37500000  0.95866667  0.50885000  1.0
  O2-  O144  1  0.62500000  0.37466667  0.25885000  1.0
  O2-  O145  1  0.62500000  0.37466667  0.75885000  1.0
  O2-  O146  1  0.12500000  0.37466667  0.25885000  1.0
  O2-  O147  1  0.12500000  0.37466667  0.75885000  1.0
  O2-  O148  1  0.62500000  0.87466667  0.25885000  1.0
  O2-  O149  1  0.62500000  0.87466667  0.75885000  1.0
  O2-  O150  1  0.12500000  0.87466667  0.25885000  1.0
  O2-  O151  1  0.12500000  0.87466667  0.75885000  1.0
  O2-  O152  1  0.62500000  0.37466667  0.49115000  1.0
  O2-  O153  1  0.62500000  0.37466667  0.99115000  1.0
  O2-  O154  1  0.12500000  0.37466667  0.49115000  1.0
  O2-  O155  1  0.12500000  0.37466667  0.99115000  1.0
  O2-  O156  1  0.62500000  0.87466667  0.49115000  1.0
  O2-  O157  1  0.62500000  0.87466667  0.99115000  1.0
  O2-  O158  1  0.12500000  0.87466667  0.49115000  1.0
  O2-  O159  1  0.12500000  0.87466667  0.99115000  1.0
