# generated using pymatgen
data_Li5AlO4
_symmetry_space_group_name_H-M   'P 1'
_cell_length_a   9.24600000
_cell_length_b   12.61000000
_cell_length_c   12.84800000
_cell_angle_alpha   90.00000000
_cell_angle_beta   90.00000000
_cell_angle_gamma   90.00000000
_symmetry_Int_Tables_number   1
_chemical_formula_structural   Li5AlO4
_chemical_formula_sum   'Li80 Al16 O64'
_cell_volume   1497.97478688
_cell_formula_units_Z   16
loop_
 _symmetry_equiv_pos_site_id
 _symmetry_equiv_pos_as_xyz
  1  'x, y, z'
loop_
 _atom_type_symbol
 _atom_type_oxidation_number
  Li+  1.0
  Al3+  3.0
  O2-  -2.0
loop_
 _atom_site_type_symbol
 _atom_site_label
 _atom_site_symmetry_multiplicity
 _atom_site_fract_x
 _atom_site_fract_y
 _atom_site_fract_z
 _atom_site_occupancy
  Li+  Li1  1  0.38200000  0.23700000  0.21750000  1.0
  Li+  Li1  1  0.38200000  0.23700000  0.71750000  1.0
  Li+  Li1  1  0.38200000  0.73700000  0.21750000  1.0
  Li+  Li1  1  0.38200000  0.73700000  0.71750000  1.0
  Li+  Li1  1  0.88200000  0.23700000  0.21750000  1.0
  Li+  Li1  1  0.88200000  0.23700000  0.71750000  1.0
  Li+  Li1  1  0.88200000  0.73700000  0.21750000  1.0
  Li+  Li1  1  0.88200000  0.73700000  0.71750000  1.0
  Li+  Li1  1  0.38200000  0.23700000  0.03250000  1.0
  Li+  Li1  1  0.38200000  0.23700000  0.53250000  1.0
  Li+  Li1  1  0.38200000  0.73700000  0.03250000  1.0
  Li+  Li1  1  0.38200000  0.73700000  0.53250000  1.0
  Li+  Li1  1  0.88200000  0.23700000  0.03250000  1.0
  Li+  Li1  1  0.88200000  0.23700000  0.53250000  1.0
  Li+  Li1  1  0.88200000  0.73700000  0.03250000  1.0
  Li+  Li1  1  0.88200000  0.73700000  0.53250000  1.0
  Li+  Li1  1  0.38200000  0.01300000  0.21750000  1.0
  Li+  Li1  1  0.38200000  0.01300000  0.71750000  1.0
  Li+  Li1  1  0.38200000  0.51300000  0.21750000  1.0
  Li+  Li1  1  0.38200000  0.51300000  0.71750000  1.0
  Li+  Li1  1  0.88200000  0.01300000  0.21750000  1.0
  Li+  Li1  1  0.88200000  0.01300000  0.71750000  1.0
  Li+  Li1  1  0.88200000  0.51300000  0.21750000  1.0
  Li+  Li1  1  0.88200000  0.51300000  0.71750000  1.0
  Li+  Li1  1  0.38200000  0.01300000  0.03250000  1.0
  Li+  Li1  1  0.38200000  0.01300000  0.53250000  1.0
  Li+  Li1  1  0.38200000  0.51300000  0.03250000  1.0
  Li+  Li1  1  0.38200000  0.51300000  0.53250000  1.0
  Li+  Li1  1  0.88200000  0.01300000  0.03250000  1.0
  Li+  Li1  1  0.88200000  0.01300000  0.53250000  1.0
  Li+  Li1  1  0.88200000  0.51300000  0.03250000  1.0
  Li+  Li1  1  0.88200000  0.51300000  0.53250000  1.0
  Li+  Li1  1  0.11800000  0.26300000  0.28250000  1.0
  Li+  Li1  1  0.11800000  0.26300000  0.78250000  1.0
  Li+  Li1  1  0.11800000  0.76300000  0.28250000  1.0
  Li+  Li1  1  0.11800000  0.76300000  0.78250000  1.0
  Li+  Li1  1  0.61800000  0.26300000  0.28250000  1.0
  Li+  Li1  1  0.61800000  0.26300000  0.78250000  1.0
  Li+  Li1  1  0.61800000  0.76300000  0.28250000  1.0
  Li+  Li1  1  0.61800000  0.76300000  0.78250000  1.0
  Li+  Li1  1  0.11800000  0.26300000  0.46750000  1.0
  Li+  Li1  1  0.11800000  0.26300000  0.96750000  1.0
  Li+  Li1  1  0.11800000  0.76300000  0.46750000  1.0
  Li+  Li1  1  0.11800000  0.76300000  0.96750000  1.0
  Li+  Li1  1  0.61800000  0.26300000  0.46750000  1.0
  Li+  Li1  1  0.61800000  0.26300000  0.96750000  1.0
  Li+  Li1  1  0.61800000  0.76300000  0.46750000  1.0
  Li+  Li1  1  0.61800000  0.76300000  0.96750000  1.0
  Li+  Li1  1  0.11800000  0.48700000  0.28250000  1.0
  Li+  Li1  1  0.11800000  0.48700000  0.78250000  1.0
  Li+  Li1  1  0.11800000  0.98700000  0.28250000  1.0
  Li+  Li1  1  0.11800000  0.98700000  0.78250000  1.0
  Li+  Li1  1  0.61800000  0.48700000  0.28250000  1.0
  Li+  Li1  1  0.61800000  0.48700000  0.78250000  1.0
  Li+  Li1  1  0.61800000  0.98700000  0.28250000  1.0
  Li+  Li1  1  0.61800000  0.98700000  0.78250000  1.0
  Li+  Li1  1  0.11800000  0.48700000  0.46750000  1.0
  Li+  Li1  1  0.11800000  0.48700000  0.96750000  1.0
  Li+  Li1  1  0.11800000  0.98700000  0.46750000  1.0
  Li+  Li1  1  0.11800000  0.98700000  0.96750000  1.0
  Li+  Li1  1  0.61800000  0.48700000  0.46750000  1.0
  Li+  Li1  1  0.61800000  0.48700000  0.96750000  1.0
  Li+  Li1  1  0.61800000  0.98700000  0.46750000  1.0
  Li+  Li1  1  0.61800000  0.98700000  0.96750000  1.0
  Li+  Li2  1  0.37850000  0.37500000  0.12500000  1.0
  Li+  Li2  1  0.37850000  0.37500000  0.62500000  1.0
  Li+  Li2  1  0.37850000  0.87500000  0.12500000  1.0
  Li+  Li2  1  0.37850000  0.87500000  0.62500000  1.0
  Li+  Li2  1  0.87850000  0.37500000  0.12500000  1.0
  Li+  Li2  1  0.87850000  0.37500000  0.62500000  1.0
  Li+  Li2  1  0.87850000  0.87500000  0.12500000  1.0
  Li+  Li2  1  0.87850000  0.87500000  0.62500000  1.0
  Li+  Li2  1  0.12150000  0.12500000  0.37500000  1.0
  Li+  Li2  1  0.12150000  0.12500000  0.87500000  1.0
  Li+  Li2  1  0.12150000  0.62500000  0.37500000  1.0
  Li+  Li2  1  0.12150000  0.62500000  0.87500000  1.0
  Li+  Li2  1  0.62150000  0.12500000  0.37500000  1.0
  Li+  Li2  1  0.62150000  0.12500000  0.87500000  1.0
  Li+  Li2  1  0.62150000  0.62500000  0.37500000  1.0
  Li+  Li2  1  0.62150000  0.62500000  0.87500000  1.0
  Al3+  Al1  1  0.11500000  0.12500000  0.12500000  1.0
  Al3+  Al1  1  0.11500000  0.12500000  0.62500000  1.0
  Al3+  Al1  1  0.11500000  0.62500000  0.12500000  1.0
  Al3+  Al1  1  0.11500000  0.62500000  0.62500000  1.0
  Al3+  Al1  1  0.61500000  0.12500000  0.12500000  1.0
  Al3+  Al1  1  0.61500000  0.12500000  0.62500000  1.0
  Al3+  Al1  1  0.61500000  0.62500000  0.12500000  1.0
  Al3+  Al1  1  0.61500000  0.62500000  0.62500000  1.0
  Al3+  Al1  1  0.38500000  0.37500000  0.37500000  1.0
  Al3+  Al1  1  0.38500000  0.37500000  0.87500000  1.0
  Al3+  Al1  1  0.38500000  0.87500000  0.37500000  1.0
  Al3+  Al1  1  0.38500000  0.87500000  0.87500000  1.0
  Al3+  Al1  1  0.88500000  0.37500000  0.37500000  1.0
  Al3+  Al1  1  0.88500000  0.37500000  0.87500000  1.0
  Al3+  Al1  1  0.88500000  0.87500000  0.37500000  1.0
  Al3+  Al1  1  0.88500000  0.87500000  0.87500000  1.0
  O2-  O1  1  0.00000000  0.24175000  0.12500000  1.0
  O2-  O1  1  0.00000000  0.24175000  0.62500000  1.0
  O2-  O1  1  0.00000000  0.74175000  0.12500000  1.0
  O2-  O1  1  0.00000000  0.74175000  0.62500000  1.0
  O2-  O1  1  0.50000000  0.24175000  0.12500000  1.0
  O2-  O1  1  0.50000000  0.24175000  0.62500000  1.0
  O2-  O1  1  0.50000000  0.74175000  0.12500000  1.0
  O2-  O1  1  0.50000000  0.74175000  0.62500000  1.0
  O2-  O1  1  0.00000000  0.00825000  0.12500000  1.0
  O2-  O1  1  0.00000000  0.00825000  0.62500000  1.0
  O2-  O1  1  0.00000000  0.50825000  0.12500000  1.0
  O2-  O1  1  0.00000000  0.50825000  0.62500000  1.0
  O2-  O1  1  0.50000000  0.00825000  0.12500000  1.0
  O2-  O1  1  0.50000000  0.00825000  0.62500000  1.0
  O2-  O1  1  0.50000000  0.50825000  0.12500000  1.0
  O2-  O1  1  0.50000000  0.50825000  0.62500000  1.0
  O2-  O1  1  0.00000000  0.25825000  0.37500000  1.0
  O2-  O1  1  0.00000000  0.25825000  0.87500000  1.0
  O2-  O1  1  0.00000000  0.75825000  0.37500000  1.0
  O2-  O1  1  0.00000000  0.75825000  0.87500000  1.0
  O2-  O1  1  0.50000000  0.25825000  0.37500000  1.0
  O2-  O1  1  0.50000000  0.25825000  0.87500000  1.0
  O2-  O1  1  0.50000000  0.75825000  0.37500000  1.0
  O2-  O1  1  0.50000000  0.75825000  0.87500000  1.0
  O2-  O1  1  0.50000000  0.49175000  0.37500000  1.0
  O2-  O1  1  0.50000000  0.49175000  0.87500000  1.0
  O2-  O1  1  0.50000000  0.99175000  0.37500000  1.0
  O2-  O1  1  0.50000000  0.99175000  0.87500000  1.0
  O2-  O1  1  0.00000000  0.49175000  0.37500000  1.0
  O2-  O1  1  0.00000000  0.49175000  0.87500000  1.0
  O2-  O1  1  0.00000000  0.99175000  0.37500000  1.0
  O2-  O1  1  0.00000000  0.99175000  0.87500000  1.0
  O2-  O2  1  0.20800000  0.12500000  0.24115000  1.0
  O2-  O2  1  0.20800000  0.12500000  0.74115000  1.0
  O2-  O2  1  0.20800000  0.62500000  0.24115000  1.0
  O2-  O2  1  0.20800000  0.62500000  0.74115000  1.0
  O2-  O2  1  0.70800000  0.12500000  0.24115000  1.0
  O2-  O2  1  0.70800000  0.12500000  0.74115000  1.0
  O2-  O2  1  0.70800000  0.62500000  0.24115000  1.0
  O2-  O2  1  0.70800000  0.62500000  0.74115000  1.0
  O2-  O2  1  0.20800000  0.12500000  0.00885000  1.0
  O2-  O2  1  0.20800000  0.12500000  0.50885000  1.0
  O2-  O2  1  0.20800000  0.62500000  0.00885000  1.0
  O2-  O2  1  0.20800000  0.62500000  0.50885000  1.0
  O2-  O2  1  0.70800000  0.12500000  0.00885000  1.0
  O2-  O2  1  0.70800000  0.12500000  0.50885000  1.0
  O2-  O2  1  0.70800000  0.62500000  0.00885000  1.0
  O2-  O2  1  0.70800000  0.62500000  0.50885000  1.0
  O2-  O2  1  0.29200000  0.37500000  0.25885000  1.0
  O2-  O2  1  0.29200000  0.37500000  0.75885000  1.0
  O2-  O2  1  0.29200000  0.87500000  0.25885000  1.0
  O2-  O2  1  0.29200000  0.87500000  0.75885000  1.0
  O2-  O2  1  0.79200000  0.37500000  0.25885000  1.0
  O2-  O2  1  0.79200000  0.37500000  0.75885000  1.0
  O2-  O2  1  0.79200000  0.87500000  0.25885000  1.0
  O2-  O2  1  0.79200000  0.87500000  0.75885000  1.0
  O2-  O2  1  0.29200000  0.37500000  0.49115000  1.0
  O2-  O2  1  0.29200000  0.37500000  0.99115000  1.0
  O2-  O2  1  0.29200000  0.87500000  0.49115000  1.0
  O2-  O2  1  0.29200000  0.87500000  0.99115000  1.0
  O2-  O2  1  0.79200000  0.37500000  0.49115000  1.0
  O2-  O2  1  0.79200000  0.37500000  0.99115000  1.0
  O2-  O2  1  0.79200000  0.87500000  0.49115000  1.0
  O2-  O2  1  0.79200000  0.87500000  0.99115000  1.0
