# generated using pymatgen
data_Li17Sb13S28
_symmetry_space_group_name_H-M   'P 1'
_cell_length_a   17.21133097
_cell_length_b   9.22510000
_cell_length_c   25.81699644
_cell_angle_alpha   68.60677679
_cell_angle_beta   95.39766959
_cell_angle_gamma   111.39322321
_symmetry_Int_Tables_number   1
_chemical_formula_structural   Li17Sb13S28
_chemical_formula_sum   'Li51 Sb39 S84'
_cell_volume   3550.12260860
_cell_formula_units_Z   3
loop_
 _symmetry_equiv_pos_site_id
 _symmetry_equiv_pos_as_xyz
  1  'x, y, z'
loop_
 _atom_type_symbol
 _atom_type_oxidation_number
  Li+  1.0
  Sb5+  5.0
  S2-  -2.0
loop_
 _atom_site_type_symbol
 _atom_site_label
 _atom_site_symmetry_multiplicity
 _atom_site_fract_x
 _atom_site_fract_y
 _atom_site_fract_z
 _atom_site_occupancy
  Li+  Li0  1  0.25000000  0.50000000  0.58333333  1.0
  Li+  Li1  1  0.25000000  0.50000000  0.25000000  1.0
  Li+  Li2  1  0.25000000  0.50000000  0.91666667  1.0
  Li+  Li3  1  0.75000000  0.50000000  0.58333333  1.0
  Li+  Li4  1  0.74850351  0.49857327  0.25185636  1.0
  Li+  Li5  1  0.75000000  0.50000000  0.91666667  1.0
  Li+  Li6  1  0.48555000  0.70570000  0.53383333  1.0
  Li+  Li7  1  0.48555000  0.70570000  0.20050000  1.0
  Li+  Li8  1  0.48555000  0.70570000  0.86716667  1.0
  Li+  Li9  1  0.98555000  0.70570000  0.53383333  1.0
  Li+  Li10  1  0.98555000  0.70570000  0.20050000  1.0
  Li+  Li11  1  0.98555000  0.70570000  0.86716667  1.0
  Li+  Li12  1  0.32472645  0.70677222  0.42048169  1.0
  Li+  Li13  1  0.32425000  0.70570000  0.09296667  1.0
  Li+  Li14  1  0.32425000  0.70570000  0.75963333  1.0
  Li+  Li15  1  0.82425000  0.70570000  0.42630000  1.0
  Li+  Li16  1  0.82425000  0.70570000  0.09296667  1.0
  Li+  Li17  1  0.82425000  0.70570000  0.75963333  1.0
  Li+  Li18  1  0.01445000  0.29430000  0.63283333  1.0
  Li+  Li19  1  0.01445000  0.29430000  0.29950000  1.0
  Li+  Li20  1  0.01445000  0.29430000  0.96616667  1.0
  Li+  Li21  1  0.51445000  0.29430000  0.63283333  1.0
  Li+  Li22  1  0.51445000  0.29430000  0.29950000  1.0
  Li+  Li23  1  0.51445000  0.29430000  0.96616667  1.0
  Li+  Li24  1  0.17651468  0.29298385  0.74313852  1.0
  Li+  Li25  1  0.17575000  0.29430000  0.40703333  1.0
  Li+  Li26  1  0.17575000  0.29430000  0.07370000  1.0
  Li+  Li27  1  0.67575000  0.29430000  0.74036667  1.0
  Li+  Li28  1  0.67575000  0.29430000  0.40703333  1.0
  Li+  Li29  1  0.67575000  0.29430000  0.07370000  1.0
  Li+  Li30  1  0.07105000  0.50000000  0.46403333  1.0
  Li+  Li31  1  0.07105000  0.50000000  0.13070000  1.0
  Li+  Li32  1  0.07105000  0.50000000  0.79736667  1.0
  Li+  Li33  1  0.57105000  0.50000000  0.46403333  1.0
  Li+  Li34  1  0.57291389  0.49822479  0.13028225  1.0
  Li+  Li35  1  0.57105000  0.50000000  0.79736667  1.0
  Li+  Li36  1  0.42895000  0.50000000  0.70263333  1.0
  Li+  Li37  1  0.42895000  0.50000000  0.36930000  1.0
  Li+  Li38  1  0.43208965  0.49354908  0.03808265  1.0
  Li+  Li39  1  0.92895000  0.50000000  0.70263333  1.0
  Li+  Li40  1  0.92895000  0.50000000  0.36930000  1.0
  Li+  Li41  1  0.92894633  0.49613269  0.03229008  1.0
  Li+  Li42  1  0.05359000  0.91830000  0.71427333  1.0
  Li+  Li43  1  0.05359000  0.91830000  0.38094000  1.0
  Li+  Li44  1  0.05359000  0.91830000  0.04760667  1.0
  Li+  Li45  1  0.44641000  0.08170000  0.45239333  1.0
  Li+  Li46  1  0.44641000  0.08170000  0.11906000  1.0
  Li+  Li47  1  0.44641000  0.08170000  0.78572667  1.0
  Li+  Li48  1  0.94467762  0.08598115  0.44935907  1.0
  Li+  Li49  1  0.94641000  0.08170000  0.11906000  1.0
  Li+  Li50  1  0.94641000  0.08170000  0.78572667  1.0
  Sb5+  Sb51  1  0.55147737  0.91813940  0.71475648  1.0
  Sb5+  Sb52  1  0.55602079  0.92173081  0.37854304  1.0
  Sb5+  Sb53  1  0.55359000  0.91830000  0.04760667  1.0
  Sb5+  Sb54  1  0.15250000  0.68231000  0.64833333  1.0
  Sb5+  Sb55  1  0.15250000  0.68231000  0.31500000  1.0
  Sb5+  Sb56  1  0.15250000  0.68231000  0.98166667  1.0
  Sb5+  Sb57  1  0.65250000  0.68231000  0.64833333  1.0
  Sb5+  Sb58  1  0.65415099  0.68255221  0.31728995  1.0
  Sb5+  Sb59  1  0.65271764  0.68184574  0.98331367  1.0
  Sb5+  Sb60  1  0.34750000  0.31769000  0.51833333  1.0
  Sb5+  Sb61  1  0.34750000  0.31769000  0.18500000  1.0
  Sb5+  Sb62  1  0.34750000  0.31769000  0.85166667  1.0
  Sb5+  Sb63  1  0.84750000  0.31769000  0.51833333  1.0
  Sb5+  Sb64  1  0.84750000  0.31769000  0.18500000  1.0
  Sb5+  Sb65  1  0.84750000  0.31769000  0.85166667  1.0
  Sb5+  Sb66  1  0.38463500  0.90505000  0.61417667  1.0
  Sb5+  Sb67  1  0.38463500  0.90505000  0.28084333  1.0
  Sb5+  Sb68  1  0.38463500  0.90505000  0.94751000  1.0
  Sb5+  Sb69  1  0.88463500  0.90505000  0.61417667  1.0
  Sb5+  Sb70  1  0.88463500  0.90505000  0.28084333  1.0
  Sb5+  Sb71  1  0.88463500  0.90505000  0.94751000  1.0
  Sb5+  Sb72  1  0.20373500  0.90505000  0.49357667  1.0
  Sb5+  Sb73  1  0.20373500  0.90505000  0.16024333  1.0
  Sb5+  Sb74  1  0.20373500  0.90505000  0.82691000  1.0
  Sb5+  Sb75  1  0.87824387  0.89466358  0.59925381  1.0
  Sb5+  Sb76  1  0.87937000  0.89293000  0.26903333  1.0
  Sb5+  Sb77  1  0.87705253  0.89777887  0.93367052  1.0
  Sb5+  Sb78  1  0.72145000  0.89293000  0.49708667  1.0
  Sb5+  Sb79  1  0.72145000  0.89293000  0.16375333  1.0
  Sb5+  Sb80  1  0.72329203  0.89426827  0.83578517  1.0
  Sb5+  Sb81  1  0.12063000  0.10707000  0.56430000  1.0
  Sb5+  Sb82  1  0.12063000  0.10707000  0.23096667  1.0
  Sb5+  Sb83  1  0.12063000  0.10707000  0.89763333  1.0
  Sb5+  Sb84  1  0.62290353  0.10944494  0.56056557  1.0
  Sb5+  Sb85  1  0.61908253  0.10546277  0.23052402  1.0
  Sb5+  Sb86  1  0.61705927  0.10698483  0.89456516  1.0
  Sb5+  Sb87  1  0.27873455  0.10597656  0.66893945  1.0
  Sb5+  Sb88  1  0.27855000  0.10707000  0.33624667  1.0
  Sb5+  Sb89  1  0.27855000  0.10707000  0.00291333  1.0
  S2-  S90  1  0.05939500  0.42290000  0.71040333  1.0
  S2-  S91  1  0.05939500  0.42290000  0.37707000  1.0
  S2-  S92  1  0.05901425  0.42538683  0.04064180  1.0
  S2-  S93  1  0.55975863  0.41867618  0.71258596  1.0
  S2-  S94  1  0.56134882  0.41935986  0.37475668  1.0
  S2-  S95  1  0.55939500  0.42290000  0.04373667  1.0
  S2-  S96  1  0.44060500  0.57710000  0.45626333  1.0
  S2-  S97  1  0.44060500  0.57710000  0.12293000  1.0
  S2-  S98  1  0.44060500  0.57710000  0.78959667  1.0
  S2-  S99  1  0.94060500  0.57710000  0.45626333  1.0
  S2-  S100  1  0.94060500  0.57710000  0.12293000  1.0
  S2-  S101  1  0.94132665  0.57314943  0.79020945  1.0
  S2-  S102  1  0.07722000  0.00000000  0.46814667  1.0
  S2-  S103  1  0.07722000  0.00000000  0.13481333  1.0
  S2-  S104  1  0.07722000  0.00000000  0.80148000  1.0
  S2-  S105  1  0.57856130  0.99752773  0.47076427  1.0
  S2-  S106  1  0.57722000  0.00000000  0.13481333  1.0
  S2-  S107  1  0.57722000  0.00000000  0.80148000  1.0
  S2-  S108  1  0.42278000  0.00000000  0.69852000  1.0
  S2-  S109  1  0.42155791  0.99768369  0.36468420  1.0
  S2-  S110  1  0.42278000  0.00000000  0.03185333  1.0
  S2-  S111  1  0.92278000  0.00000000  0.69852000  1.0
  S2-  S112  1  0.92291341  0.00181231  0.36067207  1.0
  S2-  S113  1  0.92450303  0.00212419  0.03423544  1.0
  S2-  S114  1  0.49404000  0.79303000  0.62823333  1.0
  S2-  S115  1  0.49404000  0.79303000  0.29490000  1.0
  S2-  S116  1  0.49035350  0.79408792  0.96082660  1.0
  S2-  S117  1  0.99404000  0.79303000  0.62823333  1.0
  S2-  S118  1  0.99404000  0.79303000  0.29490000  1.0
  S2-  S119  1  0.99404000  0.79303000  0.96156667  1.0
  S2-  S120  1  0.18265000  0.79303000  0.42064000  1.0
  S2-  S121  1  0.18265000  0.79303000  0.08730667  1.0
  S2-  S122  1  0.18207356  0.79672548  0.75507573  1.0
  S2-  S123  1  0.67738577  0.78889777  0.41616083  1.0
  S2-  S124  1  0.68530642  0.79421304  0.09034916  1.0
  S2-  S125  1  0.68265000  0.79303000  0.75397333  1.0
  S2-  S126  1  0.00596000  0.20697000  0.53843333  1.0
  S2-  S127  1  0.00852704  0.20886370  0.20433912  1.0
  S2-  S128  1  0.00596000  0.20697000  0.87176667  1.0
  S2-  S129  1  0.50596000  0.20697000  0.53843333  1.0
  S2-  S130  1  0.50596000  0.20697000  0.20510000  1.0
  S2-  S131  1  0.50596000  0.20697000  0.87176667  1.0
  S2-  S132  1  0.31735000  0.20697000  0.74602667  1.0
  S2-  S133  1  0.31735000  0.20697000  0.41269333  1.0
  S2-  S134  1  0.31735000  0.20697000  0.07936000  1.0
  S2-  S135  1  0.81735000  0.20697000  0.74602667  1.0
  S2-  S136  1  0.81735000  0.20697000  0.41269333  1.0
  S2-  S137  1  0.81735000  0.20697000  0.07936000  1.0
  S2-  S138  1  0.27896000  0.60742000  0.67037333  1.0
  S2-  S139  1  0.27626126  0.60398954  0.34079944  1.0
  S2-  S140  1  0.27896000  0.60742000  0.00370667  1.0
  S2-  S141  1  0.77844995  0.60707284  0.66975017  1.0
  S2-  S142  1  0.77845250  0.60396209  0.33698517  1.0
  S2-  S143  1  0.77830704  0.61250637  0.00353780  1.0
  S2-  S144  1  0.11944000  0.60742000  0.56402667  1.0
  S2-  S145  1  0.11944000  0.60742000  0.23069333  1.0
  S2-  S146  1  0.11934239  0.60877511  0.89276376  1.0
  S2-  S147  1  0.61944000  0.60742000  0.56402667  1.0
  S2-  S148  1  0.61944000  0.60742000  0.23069333  1.0
  S2-  S149  1  0.61545015  0.60676201  0.89460689  1.0
  S2-  S150  1  0.22104000  0.39258000  0.49629333  1.0
  S2-  S151  1  0.22104000  0.39258000  0.16296000  1.0
  S2-  S152  1  0.22658394  0.39082154  0.83348369  1.0
  S2-  S153  1  0.72104000  0.39258000  0.49629333  1.0
  S2-  S154  1  0.71987922  0.39231105  0.16349659  1.0
  S2-  S155  1  0.72098837  0.39124731  0.82872136  1.0
  S2-  S156  1  0.38056000  0.39258000  0.60264000  1.0
  S2-  S157  1  0.38056000  0.39258000  0.26930667  1.0
  S2-  S158  1  0.38056000  0.39258000  0.93597333  1.0
  S2-  S159  1  0.87947496  0.39016298  0.60078734  1.0
  S2-  S160  1  0.88056000  0.39258000  0.26930667  1.0
  S2-  S161  1  0.88056000  0.39258000  0.93597333  1.0
  S2-  S162  1  0.34877000  0.79790000  0.51748667  1.0
  S2-  S163  1  0.34877000  0.79790000  0.18415333  1.0
  S2-  S164  1  0.34877000  0.79790000  0.85082000  1.0
  S2-  S165  1  0.84877000  0.79790000  0.51748667  1.0
  S2-  S166  1  0.84877000  0.79790000  0.18415333  1.0
  S2-  S167  1  0.84877000  0.79790000  0.85082000  1.0
  S2-  S168  1  0.15348745  0.20128816  0.64746368  1.0
  S2-  S169  1  0.15123000  0.20210000  0.31584667  1.0
  S2-  S170  1  0.14773920  0.20405027  0.98839151  1.0
  S2-  S171  1  0.65123000  0.20210000  0.64918000  1.0
  S2-  S172  1  0.65123000  0.20210000  0.31584667  1.0
  S2-  S173  1  0.65123000  0.20210000  0.98251333  1.0
