# generated using pymatgen
data_Li17Sb13S28
_symmetry_space_group_name_H-M   'P 1'
_cell_length_a   25.66893240
_cell_length_b   17.11262161
_cell_length_c   9.17219278
_cell_angle_alpha   111.39322321
_cell_angle_beta   111.39322321
_cell_angle_gamma   84.60233041
_symmetry_Int_Tables_number   1
_chemical_formula_structural   Li17Sb13S28
_chemical_formula_sum   'Li51 Sb39 S84'
_cell_volume   3489.39091941
_cell_formula_units_Z   3
loop_
 _symmetry_equiv_pos_site_id
 _symmetry_equiv_pos_as_xyz
  1  'x, y, z'
loop_
 _atom_type_symbol
 _atom_type_oxidation_number
  Li+  1.0
  Sb5+  5.0
  S2-  -2.0
loop_
 _atom_site_type_symbol
 _atom_site_label
 _atom_site_symmetry_multiplicity
 _atom_site_fract_x
 _atom_site_fract_y
 _atom_site_fract_z
 _atom_site_occupancy
  Li+  Li0  1  0.83333333  0.41666667  0.50000000  1.0
  Li+  Li1  1  0.50000000  0.41666667  0.50000000  1.0
  Li+  Li2  1  0.16666667  0.41666667  0.50000000  1.0
  Li+  Li3  1  0.83333333  0.91666667  0.50000000  1.0
  Li+  Li4  1  0.50000000  0.91666667  0.50000000  1.0
  Li+  Li5  1  0.16666667  0.91666667  0.50000000  1.0
  Li+  Li6  1  0.78383333  0.18111667  0.29430000  1.0
  Li+  Li7  1  0.45050000  0.18111667  0.29430000  1.0
  Li+  Li8  1  0.11716667  0.18111667  0.29430000  1.0
  Li+  Li9  1  0.78383333  0.68111667  0.29430000  1.0
  Li+  Li10  1  0.45050000  0.68111667  0.29430000  1.0
  Li+  Li11  1  0.11716667  0.68111667  0.29430000  1.0
  Li+  Li12  1  0.67630000  0.34241667  0.29430000  1.0
  Li+  Li13  1  0.34296667  0.34241667  0.29430000  1.0
  Li+  Li14  1  0.00963333  0.34241667  0.29430000  1.0
  Li+  Li15  1  0.67630000  0.84241667  0.29430000  1.0
  Li+  Li16  1  0.34296667  0.84241667  0.29430000  1.0
  Li+  Li17  1  0.00963333  0.84241667  0.29430000  1.0
  Li+  Li18  1  0.88283333  0.65221667  0.70570000  1.0
  Li+  Li19  1  0.54950000  0.65221667  0.70570000  1.0
  Li+  Li20  1  0.21616667  0.65221667  0.70570000  1.0
  Li+  Li21  1  0.88283333  0.15221667  0.70570000  1.0
  Li+  Li22  1  0.54950000  0.15221667  0.70570000  1.0
  Li+  Li23  1  0.21616667  0.15221667  0.70570000  1.0
  Li+  Li24  1  0.99036667  0.49091667  0.70570000  1.0
  Li+  Li25  1  0.65703333  0.49091667  0.70570000  1.0
  Li+  Li26  1  0.32370000  0.49091667  0.70570000  1.0
  Li+  Li27  1  0.99036667  0.99091667  0.70570000  1.0
  Li+  Li28  1  0.65703333  0.99091667  0.70570000  1.0
  Li+  Li29  1  0.32370000  0.99091667  0.70570000  1.0
  Li+  Li30  1  0.71403333  0.59561667  0.50000000  1.0
  Li+  Li31  1  0.38070000  0.59561667  0.50000000  1.0
  Li+  Li32  1  0.04736667  0.59561667  0.50000000  1.0
  Li+  Li33  1  0.71403333  0.09561667  0.50000000  1.0
  Li+  Li34  1  0.38070000  0.09561667  0.50000000  1.0
  Li+  Li35  1  0.04736667  0.09561667  0.50000000  1.0
  Li+  Li36  1  0.95263333  0.23771667  0.50000000  1.0
  Li+  Li37  1  0.61930000  0.23771667  0.50000000  1.0
  Li+  Li38  1  0.28596667  0.23771667  0.50000000  1.0
  Li+  Li39  1  0.95263333  0.73771667  0.50000000  1.0
  Li+  Li40  1  0.61930000  0.73771667  0.50000000  1.0
  Li+  Li41  1  0.28596667  0.73771667  0.50000000  1.0
  Li+  Li42  1  0.96427333  0.61307667  0.08170000  1.0
  Li+  Li43  1  0.63094000  0.61307667  0.08170000  1.0
  Li+  Li44  1  0.29760667  0.61307667  0.08170000  1.0
  Li+  Li45  1  0.70239333  0.22025667  0.91830000  1.0
  Li+  Li46  1  0.36906000  0.22025667  0.91830000  1.0
  Li+  Li47  1  0.03572667  0.22025667  0.91830000  1.0
  Li+  Li48  1  0.70239333  0.72025667  0.91830000  1.0
  Li+  Li49  1  0.36906000  0.72025667  0.91830000  1.0
  Li+  Li50  1  0.03572667  0.72025667  0.91830000  1.0
  Sb5+  Sb51  1  0.96427333  0.11307667  0.08170000  1.0
  Sb5+  Sb52  1  0.63094000  0.11307667  0.08170000  1.0
  Sb5+  Sb53  1  0.29760667  0.11307667  0.08170000  1.0
  Sb5+  Sb54  1  0.89833333  0.51416667  0.31769000  1.0
  Sb5+  Sb55  1  0.56500000  0.51416667  0.31769000  1.0
  Sb5+  Sb56  1  0.23166667  0.51416667  0.31769000  1.0
  Sb5+  Sb57  1  0.89833333  0.01416667  0.31769000  1.0
  Sb5+  Sb58  1  0.56500000  0.01416667  0.31769000  1.0
  Sb5+  Sb59  1  0.23166667  0.01416667  0.31769000  1.0
  Sb5+  Sb60  1  0.76833333  0.31916667  0.68231000  1.0
  Sb5+  Sb61  1  0.43500000  0.31916667  0.68231000  1.0
  Sb5+  Sb62  1  0.10166667  0.31916667  0.68231000  1.0
  Sb5+  Sb63  1  0.76833333  0.81916667  0.68231000  1.0
  Sb5+  Sb64  1  0.43500000  0.81916667  0.68231000  1.0
  Sb5+  Sb65  1  0.10166667  0.81916667  0.68231000  1.0
  Sb5+  Sb66  1  0.86417667  0.28203167  0.09495000  1.0
  Sb5+  Sb67  1  0.53084333  0.28203167  0.09495000  1.0
  Sb5+  Sb68  1  0.19751000  0.28203167  0.09495000  1.0
  Sb5+  Sb69  1  0.86417667  0.78203167  0.09495000  1.0
  Sb5+  Sb70  1  0.53084333  0.78203167  0.09495000  1.0
  Sb5+  Sb71  1  0.19751000  0.78203167  0.09495000  1.0
  Sb5+  Sb72  1  0.74357667  0.46293167  0.09495000  1.0
  Sb5+  Sb73  1  0.41024333  0.46293167  0.09495000  1.0
  Sb5+  Sb74  1  0.07691000  0.46293167  0.09495000  1.0
  Sb5+  Sb75  1  0.85236667  0.78729667  0.10707000  1.0
  Sb5+  Sb76  1  0.51903333  0.78729667  0.10707000  1.0
  Sb5+  Sb77  1  0.18570000  0.78729667  0.10707000  1.0
  Sb5+  Sb78  1  0.74708667  0.94521667  0.10707000  1.0
  Sb5+  Sb79  1  0.41375333  0.94521667  0.10707000  1.0
  Sb5+  Sb80  1  0.08042000  0.94521667  0.10707000  1.0
  Sb5+  Sb81  1  0.81430000  0.54603667  0.89293000  1.0
  Sb5+  Sb82  1  0.48096667  0.54603667  0.89293000  1.0
  Sb5+  Sb83  1  0.14763333  0.54603667  0.89293000  1.0
  Sb5+  Sb84  1  0.81430000  0.04603667  0.89293000  1.0
  Sb5+  Sb85  1  0.48096667  0.04603667  0.89293000  1.0
  Sb5+  Sb86  1  0.14763333  0.04603667  0.89293000  1.0
  Sb5+  Sb87  1  0.91958000  0.38811667  0.89293000  1.0
  Sb5+  Sb88  1  0.58624667  0.38811667  0.89293000  1.0
  Sb5+  Sb89  1  0.25291333  0.38811667  0.89293000  1.0
  S2-  S90  1  0.96040333  0.60727167  0.57710000  1.0
  S2-  S91  1  0.62707000  0.60727167  0.57710000  1.0
  S2-  S92  1  0.29373667  0.60727167  0.57710000  1.0
  S2-  S93  1  0.96040333  0.10727167  0.57710000  1.0
  S2-  S94  1  0.62707000  0.10727167  0.57710000  1.0
  S2-  S95  1  0.29373667  0.10727167  0.57710000  1.0
  S2-  S96  1  0.70626333  0.22606167  0.42290000  1.0
  S2-  S97  1  0.37293000  0.22606167  0.42290000  1.0
  S2-  S98  1  0.03959667  0.22606167  0.42290000  1.0
  S2-  S99  1  0.70626333  0.72606167  0.42290000  1.0
  S2-  S100  1  0.37293000  0.72606167  0.42290000  1.0
  S2-  S101  1  0.03959667  0.72606167  0.42290000  1.0
  S2-  S102  1  0.71814667  0.58944667  0.00000000  1.0
  S2-  S103  1  0.38481333  0.58944667  0.00000000  1.0
  S2-  S104  1  0.05148000  0.58944667  0.00000000  1.0
  S2-  S105  1  0.71814667  0.08944667  0.00000000  1.0
  S2-  S106  1  0.38481333  0.08944667  0.00000000  1.0
  S2-  S107  1  0.05148000  0.08944667  0.00000000  1.0
  S2-  S108  1  0.94852000  0.24388667  0.00000000  1.0
  S2-  S109  1  0.61518667  0.24388667  0.00000000  1.0
  S2-  S110  1  0.28185333  0.24388667  0.00000000  1.0
  S2-  S111  1  0.94852000  0.74388667  0.00000000  1.0
  S2-  S112  1  0.61518667  0.74388667  0.00000000  1.0
  S2-  S113  1  0.28185333  0.74388667  0.00000000  1.0
  S2-  S114  1  0.87823333  0.17262667  0.20697000  1.0
  S2-  S115  1  0.54490000  0.17262667  0.20697000  1.0
  S2-  S116  1  0.21156667  0.17262667  0.20697000  1.0
  S2-  S117  1  0.87823333  0.67262667  0.20697000  1.0
  S2-  S118  1  0.54490000  0.67262667  0.20697000  1.0
  S2-  S119  1  0.21156667  0.67262667  0.20697000  1.0
  S2-  S120  1  0.67064000  0.48401667  0.20697000  1.0
  S2-  S121  1  0.33730667  0.48401667  0.20697000  1.0
  S2-  S122  1  0.00397333  0.48401667  0.20697000  1.0
  S2-  S123  1  0.67064000  0.98401667  0.20697000  1.0
  S2-  S124  1  0.33730667  0.98401667  0.20697000  1.0
  S2-  S125  1  0.00397333  0.98401667  0.20697000  1.0
  S2-  S126  1  0.78843333  0.66070667  0.79303000  1.0
  S2-  S127  1  0.45510000  0.66070667  0.79303000  1.0
  S2-  S128  1  0.12176667  0.66070667  0.79303000  1.0
  S2-  S129  1  0.78843333  0.16070667  0.79303000  1.0
  S2-  S130  1  0.45510000  0.16070667  0.79303000  1.0
  S2-  S131  1  0.12176667  0.16070667  0.79303000  1.0
  S2-  S132  1  0.99602667  0.34931667  0.79303000  1.0
  S2-  S133  1  0.66269333  0.34931667  0.79303000  1.0
  S2-  S134  1  0.32936000  0.34931667  0.79303000  1.0
  S2-  S135  1  0.99602667  0.84931667  0.79303000  1.0
  S2-  S136  1  0.66269333  0.84931667  0.79303000  1.0
  S2-  S137  1  0.32936000  0.84931667  0.79303000  1.0
  S2-  S138  1  0.92037333  0.38770667  0.39258000  1.0
  S2-  S139  1  0.58704000  0.38770667  0.39258000  1.0
  S2-  S140  1  0.25370667  0.38770667  0.39258000  1.0
  S2-  S141  1  0.92037333  0.88770667  0.39258000  1.0
  S2-  S142  1  0.58704000  0.88770667  0.39258000  1.0
  S2-  S143  1  0.25370667  0.88770667  0.39258000  1.0
  S2-  S144  1  0.81402667  0.54722667  0.39258000  1.0
  S2-  S145  1  0.48069333  0.54722667  0.39258000  1.0
  S2-  S146  1  0.14736000  0.54722667  0.39258000  1.0
  S2-  S147  1  0.81402667  0.04722667  0.39258000  1.0
  S2-  S148  1  0.48069333  0.04722667  0.39258000  1.0
  S2-  S149  1  0.14736000  0.04722667  0.39258000  1.0
  S2-  S150  1  0.74629333  0.44562667  0.60742000  1.0
  S2-  S151  1  0.41296000  0.44562667  0.60742000  1.0
  S2-  S152  1  0.07962667  0.44562667  0.60742000  1.0
  S2-  S153  1  0.74629333  0.94562667  0.60742000  1.0
  S2-  S154  1  0.41296000  0.94562667  0.60742000  1.0
  S2-  S155  1  0.07962667  0.94562667  0.60742000  1.0
  S2-  S156  1  0.85264000  0.28610667  0.60742000  1.0
  S2-  S157  1  0.51930667  0.28610667  0.60742000  1.0
  S2-  S158  1  0.18597333  0.28610667  0.60742000  1.0
  S2-  S159  1  0.85264000  0.78610667  0.60742000  1.0
  S2-  S160  1  0.51930667  0.78610667  0.60742000  1.0
  S2-  S161  1  0.18597333  0.78610667  0.60742000  1.0
  S2-  S162  1  0.76748667  0.31789667  0.20210000  1.0
  S2-  S163  1  0.43415333  0.31789667  0.20210000  1.0
  S2-  S164  1  0.10082000  0.31789667  0.20210000  1.0
  S2-  S165  1  0.76748667  0.81789667  0.20210000  1.0
  S2-  S166  1  0.43415333  0.81789667  0.20210000  1.0
  S2-  S167  1  0.10082000  0.81789667  0.20210000  1.0
  S2-  S168  1  0.89918000  0.51543667  0.79790000  1.0
  S2-  S169  1  0.56584667  0.51543667  0.79790000  1.0
  S2-  S170  1  0.23251333  0.51543667  0.79790000  1.0
  S2-  S171  1  0.89918000  0.01543667  0.79790000  1.0
  S2-  S172  1  0.56584667  0.01543667  0.79790000  1.0
  S2-  S173  1  0.23251333  0.01543667  0.79790000  1.0
