# generated using pymatgen
data_Li17Sb13S28
_symmetry_space_group_name_H-M   'P 1'
_cell_length_a   17.21133097
_cell_length_b   25.81699644
_cell_length_c   9.22510000
_cell_angle_alpha   68.60677679
_cell_angle_beta   68.60677679
_cell_angle_gamma   84.60233041
_symmetry_Int_Tables_number   1
_chemical_formula_structural   Li17Sb13S28
_chemical_formula_sum   'Li51 Sb39 S84'
_cell_volume   3550.12260860
_cell_formula_units_Z   3
loop_
 _symmetry_equiv_pos_site_id
 _symmetry_equiv_pos_as_xyz
  1  'x, y, z'
loop_
 _atom_type_symbol
 _atom_type_oxidation_number
  Li+  1.0
  Sb5+  5.0
  S2-  -2.0
loop_
 _atom_site_type_symbol
 _atom_site_label
 _atom_site_symmetry_multiplicity
 _atom_site_fract_x
 _atom_site_fract_y
 _atom_site_fract_z
 _atom_site_occupancy
  Li+  Li2  1  0.25000000  0.16666667  0.50000000  1.0
  Li+  Li2  1  0.25000000  0.50000000  0.50000000  1.0
  Li+  Li2  1  0.25000000  0.83333333  0.50000000  1.0
  Li+  Li2  1  0.75000000  0.16666667  0.50000000  1.0
  Li+  Li2  1  0.75000000  0.50000000  0.50000000  1.0
  Li+  Li2  1  0.75000000  0.83333333  0.50000000  1.0
  Li+  Li3  1  0.48555000  0.21616667  0.29430000  1.0
  Li+  Li3  1  0.48555000  0.54950000  0.29430000  1.0
  Li+  Li3  1  0.48555000  0.88283333  0.29430000  1.0
  Li+  Li3  1  0.98555000  0.21616667  0.29430000  1.0
  Li+  Li3  1  0.98555000  0.54950000  0.29430000  1.0
  Li+  Li3  1  0.98555000  0.88283333  0.29430000  1.0
  Li+  Li3  1  0.32425000  0.32370000  0.29430000  1.0
  Li+  Li3  1  0.32425000  0.65703333  0.29430000  1.0
  Li+  Li3  1  0.32425000  0.99036667  0.29430000  1.0
  Li+  Li3  1  0.82425000  0.32370000  0.29430000  1.0
  Li+  Li3  1  0.82425000  0.65703333  0.29430000  1.0
  Li+  Li3  1  0.82425000  0.99036667  0.29430000  1.0
  Li+  Li3  1  0.01445000  0.11716667  0.70570000  1.0
  Li+  Li3  1  0.01445000  0.45050000  0.70570000  1.0
  Li+  Li3  1  0.01445000  0.78383333  0.70570000  1.0
  Li+  Li3  1  0.51445000  0.11716667  0.70570000  1.0
  Li+  Li3  1  0.51445000  0.45050000  0.70570000  1.0
  Li+  Li3  1  0.51445000  0.78383333  0.70570000  1.0
  Li+  Li3  1  0.17575000  0.00963333  0.70570000  1.0
  Li+  Li3  1  0.17575000  0.34296667  0.70570000  1.0
  Li+  Li3  1  0.17575000  0.67630000  0.70570000  1.0
  Li+  Li3  1  0.67575000  0.00963333  0.70570000  1.0
  Li+  Li3  1  0.67575000  0.34296667  0.70570000  1.0
  Li+  Li3  1  0.67575000  0.67630000  0.70570000  1.0
  Li+  Li4  1  0.07105000  0.28596667  0.50000000  1.0
  Li+  Li4  1  0.07105000  0.61930000  0.50000000  1.0
  Li+  Li4  1  0.07105000  0.95263333  0.50000000  1.0
  Li+  Li4  1  0.57105000  0.28596667  0.50000000  1.0
  Li+  Li4  1  0.57105000  0.61930000  0.50000000  1.0
  Li+  Li4  1  0.57105000  0.95263333  0.50000000  1.0
  Li+  Li4  1  0.42895000  0.04736667  0.50000000  1.0
  Li+  Li4  1  0.42895000  0.38070000  0.50000000  1.0
  Li+  Li4  1  0.42895000  0.71403333  0.50000000  1.0
  Li+  Li4  1  0.92895000  0.04736667  0.50000000  1.0
  Li+  Li4  1  0.92895000  0.38070000  0.50000000  1.0
  Li+  Li4  1  0.92895000  0.71403333  0.50000000  1.0
  Li+  Li14  1  0.05359000  0.03572667  0.08170000  1.0
  Li+  Li14  1  0.05359000  0.36906000  0.08170000  1.0
  Li+  Li14  1  0.05359000  0.70239333  0.08170000  1.0
  Li+  Li15  1  0.44641000  0.29760667  0.91830000  1.0
  Li+  Li15  1  0.44641000  0.63094000  0.91830000  1.0
  Li+  Li15  1  0.44641000  0.96427333  0.91830000  1.0
  Li+  Li16  1  0.94641000  0.29760667  0.91830000  1.0
  Li+  Li16  1  0.94641000  0.63094000  0.91830000  1.0
  Li+  Li16  1  0.94641000  0.96427333  0.91830000  1.0
  Sb5+  Sb17  1  0.55359000  0.03572667  0.08170000  1.0
  Sb5+  Sb17  1  0.55359000  0.36906000  0.08170000  1.0
  Sb5+  Sb17  1  0.55359000  0.70239333  0.08170000  1.0
  Sb5+  Sb1  1  0.15250000  0.10166667  0.31769000  1.0
  Sb5+  Sb1  1  0.15250000  0.43500000  0.31769000  1.0
  Sb5+  Sb1  1  0.15250000  0.76833333  0.31769000  1.0
  Sb5+  Sb1  1  0.65250000  0.10166667  0.31769000  1.0
  Sb5+  Sb1  1  0.65250000  0.43500000  0.31769000  1.0
  Sb5+  Sb1  1  0.65250000  0.76833333  0.31769000  1.0
  Sb5+  Sb1  1  0.34750000  0.23166667  0.68231000  1.0
  Sb5+  Sb1  1  0.34750000  0.56500000  0.68231000  1.0
  Sb5+  Sb1  1  0.34750000  0.89833333  0.68231000  1.0
  Sb5+  Sb1  1  0.84750000  0.23166667  0.68231000  1.0
  Sb5+  Sb1  1  0.84750000  0.56500000  0.68231000  1.0
  Sb5+  Sb1  1  0.84750000  0.89833333  0.68231000  1.0
  Sb5+  Sb22  1  0.38463500  0.13582333  0.09495000  1.0
  Sb5+  Sb22  1  0.38463500  0.46915667  0.09495000  1.0
  Sb5+  Sb22  1  0.38463500  0.80249000  0.09495000  1.0
  Sb5+  Sb23  1  0.88463500  0.13582333  0.09495000  1.0
  Sb5+  Sb23  1  0.88463500  0.46915667  0.09495000  1.0
  Sb5+  Sb23  1  0.88463500  0.80249000  0.09495000  1.0
  Sb5+  Sb24  1  0.20373500  0.25642333  0.09495000  1.0
  Sb5+  Sb24  1  0.20373500  0.58975667  0.09495000  1.0
  Sb5+  Sb24  1  0.20373500  0.92309000  0.09495000  1.0
  Sb5+  Sb25  1  0.87937000  0.14763333  0.10707000  1.0
  Sb5+  Sb25  1  0.87937000  0.48096667  0.10707000  1.0
  Sb5+  Sb25  1  0.87937000  0.81430000  0.10707000  1.0
  Sb5+  Sb26  1  0.72145000  0.25291333  0.10707000  1.0
  Sb5+  Sb26  1  0.72145000  0.58624667  0.10707000  1.0
  Sb5+  Sb26  1  0.72145000  0.91958000  0.10707000  1.0
  Sb5+  Sb27  1  0.12063000  0.18570000  0.89293000  1.0
  Sb5+  Sb27  1  0.12063000  0.51903333  0.89293000  1.0
  Sb5+  Sb27  1  0.12063000  0.85236667  0.89293000  1.0
  Sb5+  Sb28  1  0.62063000  0.18570000  0.89293000  1.0
  Sb5+  Sb28  1  0.62063000  0.51903333  0.89293000  1.0
  Sb5+  Sb28  1  0.62063000  0.85236667  0.89293000  1.0
  Sb5+  Sb29  1  0.27855000  0.08042000  0.89293000  1.0
  Sb5+  Sb29  1  0.27855000  0.41375333  0.89293000  1.0
  Sb5+  Sb29  1  0.27855000  0.74708667  0.89293000  1.0
  S2-  S1  1  0.05939500  0.03959667  0.57710000  1.0
  S2-  S1  1  0.05939500  0.37293000  0.57710000  1.0
  S2-  S1  1  0.05939500  0.70626333  0.57710000  1.0
  S2-  S1  1  0.55939500  0.03959667  0.57710000  1.0
  S2-  S1  1  0.55939500  0.37293000  0.57710000  1.0
  S2-  S1  1  0.55939500  0.70626333  0.57710000  1.0
  S2-  S1  1  0.44060500  0.29373667  0.42290000  1.0
  S2-  S1  1  0.44060500  0.62707000  0.42290000  1.0
  S2-  S1  1  0.44060500  0.96040333  0.42290000  1.0
  S2-  S1  1  0.94060500  0.29373667  0.42290000  1.0
  S2-  S1  1  0.94060500  0.62707000  0.42290000  1.0
  S2-  S1  1  0.94060500  0.96040333  0.42290000  1.0
  S2-  S2  1  0.07722000  0.28185333  0.00000000  1.0
  S2-  S2  1  0.07722000  0.61518667  0.00000000  1.0
  S2-  S2  1  0.07722000  0.94852000  0.00000000  1.0
  S2-  S2  1  0.57722000  0.28185333  0.00000000  1.0
  S2-  S2  1  0.57722000  0.61518667  0.00000000  1.0
  S2-  S2  1  0.57722000  0.94852000  0.00000000  1.0
  S2-  S2  1  0.42278000  0.05148000  0.00000000  1.0
  S2-  S2  1  0.42278000  0.38481333  0.00000000  1.0
  S2-  S2  1  0.42278000  0.71814667  0.00000000  1.0
  S2-  S2  1  0.92278000  0.05148000  0.00000000  1.0
  S2-  S2  1  0.92278000  0.38481333  0.00000000  1.0
  S2-  S2  1  0.92278000  0.71814667  1.00000000  1.0
  S2-  S3  1  0.49404000  0.12176667  0.20697000  1.0
  S2-  S3  1  0.49404000  0.45510000  0.20697000  1.0
  S2-  S3  1  0.49404000  0.78843333  0.20697000  1.0
  S2-  S3  1  0.99404000  0.12176667  0.20697000  1.0
  S2-  S3  1  0.99404000  0.45510000  0.20697000  1.0
  S2-  S3  1  0.99404000  0.78843333  0.20697000  1.0
  S2-  S3  1  0.18265000  0.32936000  0.20697000  1.0
  S2-  S3  1  0.18265000  0.66269333  0.20697000  1.0
  S2-  S3  1  0.18265000  0.99602667  0.20697000  1.0
  S2-  S3  1  0.68265000  0.32936000  0.20697000  1.0
  S2-  S3  1  0.68265000  0.66269333  0.20697000  1.0
  S2-  S3  1  0.68265000  0.99602667  0.20697000  1.0
  S2-  S3  1  0.00596000  0.21156667  0.79303000  1.0
  S2-  S3  1  0.00596000  0.54490000  0.79303000  1.0
  S2-  S3  1  0.00596000  0.87823333  0.79303000  1.0
  S2-  S3  1  0.50596000  0.21156667  0.79303000  1.0
  S2-  S3  1  0.50596000  0.54490000  0.79303000  1.0
  S2-  S3  1  0.50596000  0.87823333  0.79303000  1.0
  S2-  S3  1  0.31735000  0.00397333  0.79303000  1.0
  S2-  S3  1  0.31735000  0.33730667  0.79303000  1.0
  S2-  S3  1  0.31735000  0.67064000  0.79303000  1.0
  S2-  S3  1  0.81735000  0.00397333  0.79303000  1.0
  S2-  S3  1  0.81735000  0.33730667  0.79303000  1.0
  S2-  S3  1  0.81735000  0.67064000  0.79303000  1.0
  S2-  S4  1  0.27896000  0.07962667  0.39258000  1.0
  S2-  S4  1  0.27896000  0.41296000  0.39258000  1.0
  S2-  S4  1  0.27896000  0.74629333  0.39258000  1.0
  S2-  S4  1  0.77896000  0.07962667  0.39258000  1.0
  S2-  S4  1  0.77896000  0.41296000  0.39258000  1.0
  S2-  S4  1  0.77896000  0.74629333  0.39258000  1.0
  S2-  S4  1  0.11944000  0.18597333  0.39258000  1.0
  S2-  S4  1  0.11944000  0.51930667  0.39258000  1.0
  S2-  S4  1  0.11944000  0.85264000  0.39258000  1.0
  S2-  S4  1  0.61944000  0.18597333  0.39258000  1.0
  S2-  S4  1  0.61944000  0.51930667  0.39258000  1.0
  S2-  S4  1  0.61944000  0.85264000  0.39258000  1.0
  S2-  S4  1  0.22104000  0.25370667  0.60742000  1.0
  S2-  S4  1  0.22104000  0.58704000  0.60742000  1.0
  S2-  S4  1  0.22104000  0.92037333  0.60742000  1.0
  S2-  S4  1  0.72104000  0.25370667  0.60742000  1.0
  S2-  S4  1  0.72104000  0.58704000  0.60742000  1.0
  S2-  S4  1  0.72104000  0.92037333  0.60742000  1.0
  S2-  S4  1  0.38056000  0.14736000  0.60742000  1.0
  S2-  S4  1  0.38056000  0.48069333  0.60742000  1.0
  S2-  S4  1  0.38056000  0.81402667  0.60742000  1.0
  S2-  S4  1  0.88056000  0.14736000  0.60742000  1.0
  S2-  S4  1  0.88056000  0.48069333  0.60742000  1.0
  S2-  S4  1  0.88056000  0.81402667  0.60742000  1.0
  S2-  S5  1  0.34877000  0.23251333  0.20210000  1.0
  S2-  S5  1  0.34877000  0.56584667  0.20210000  1.0
  S2-  S5  1  0.34877000  0.89918000  0.20210000  1.0
  S2-  S5  1  0.84877000  0.23251333  0.20210000  1.0
  S2-  S5  1  0.84877000  0.56584667  0.20210000  1.0
  S2-  S5  1  0.84877000  0.89918000  0.20210000  1.0
  S2-  S5  1  0.15123000  0.10082000  0.79790000  1.0
  S2-  S5  1  0.15123000  0.43415333  0.79790000  1.0
  S2-  S5  1  0.15123000  0.76748667  0.79790000  1.0
  S2-  S5  1  0.65123000  0.10082000  0.79790000  1.0
  S2-  S5  1  0.65123000  0.43415333  0.79790000  1.0
  S2-  S5  1  0.65123000  0.76748667  0.79790000  1.0
