# generated using pymatgen
data_LiLa13Mg10(WO6)10
_symmetry_space_group_name_H-M   'P 1'
_cell_length_a   11.06600000
_cell_length_b   27.66500000
_cell_length_c   7.90300000
_cell_angle_alpha   90.00000000
_cell_angle_beta   90.00000000
_cell_angle_gamma   90.00000000
_symmetry_Int_Tables_number   1
_chemical_formula_structural   LiLa13Mg10(WO6)10
_chemical_formula_sum   'Li2 La26 Mg20 W20 O120'
_cell_volume   2419.43145367
_cell_formula_units_Z   2
loop_
 _symmetry_equiv_pos_site_id
 _symmetry_equiv_pos_as_xyz
  1  'x, y, z'
loop_
 _atom_type_symbol
 _atom_type_oxidation_number
  Li+  1.0
  La3+  3.0
  Mg2+  2.0
  W6+  6.0
  O2-  -2.0
loop_
 _atom_site_type_symbol
 _atom_site_label
 _atom_site_symmetry_multiplicity
 _atom_site_fract_x
 _atom_site_fract_y
 _atom_site_fract_z
 _atom_site_occupancy
  Li+  Li0  1  0.00000000  0.80000000  0.50000000  1.0
  Li+  Li0  1  0.50000000  0.80000000  0.50000000  1.0
  La3+  La1  1  0.25000000  0.10000000  0.50000000  1.0
  La3+  La1  1  0.75000000  0.10000000  0.50000000  1.0
  La3+  La2  1  0.25000000  0.70000000  0.50000000  1.0
  La3+  La2  1  0.75000000  0.70000000  0.50000000  1.0
  La3+  La3  1  0.00000000  0.20000000  0.50000000  1.0
  La3+  La3  1  0.50000000  0.20000000  0.50000000  1.0
  La3+  La4  1  0.00000000  0.40000000  0.50000000  1.0
  La3+  La4  1  0.50000000  0.40000000  0.50000000  1.0
  La3+  La5  1  0.25000000  0.10000000  0.00000000  1.0
  La3+  La5  1  0.75000000  0.10000000  0.00000000  1.0
  La3+  La6  1  0.25000000  0.30000000  0.00000000  1.0
  La3+  La6  1  0.75000000  0.30000000  0.00000000  1.0
  La3+  La7  1  0.25000000  0.50000000  0.00000000  1.0
  La3+  La7  1  0.75000000  0.50000000  0.00000000  1.0
  La3+  La8  1  0.25000000  0.70000000  0.00000000  1.0
  La3+  La8  1  0.75000000  0.70000000  0.00000000  1.0
  La3+  La9  1  0.25000000  0.90000000  0.00000000  1.0
  La3+  La9  1  0.75000000  0.90000000  0.00000000  1.0
  La3+  La10  1  0.00000000  0.00000000  0.00000000  1.0
  La3+  La10  1  0.50000000  0.00000000  0.00000000  1.0
  La3+  La11  1  0.00000000  0.40000000  0.00000000  1.0
  La3+  La11  1  0.50000000  0.40000000  0.00000000  1.0
  La3+  La12  1  0.00000000  0.60000000  0.00000000  1.0
  La3+  La12  1  0.50000000  0.60000000  0.00000000  1.0
  La3+  La13  1  0.00000000  0.80000000  0.00000000  1.0
  La3+  La13  1  0.50000000  0.80000000  0.00000000  1.0
  Mg2+  Mg1  1  0.00000000  0.10000000  0.73800000  1.0
  Mg2+  Mg1  1  0.50000000  0.10000000  0.73800000  1.0
  Mg2+  Mg1  1  0.00000000  0.30000000  0.73800000  1.0
  Mg2+  Mg1  1  0.50000000  0.30000000  0.73800000  1.0
  Mg2+  Mg1  1  0.00000000  0.50000000  0.73800000  1.0
  Mg2+  Mg1  1  0.50000000  0.50000000  0.73800000  1.0
  Mg2+  Mg1  1  0.00000000  0.70000000  0.73800000  1.0
  Mg2+  Mg1  1  0.50000000  0.70000000  0.73800000  1.0
  Mg2+  Mg1  1  0.00000000  0.90000000  0.73800000  1.0
  Mg2+  Mg1  1  0.50000000  0.90000000  0.73800000  1.0
  Mg2+  Mg1  1  0.25000000  0.00000000  0.26200000  1.0
  Mg2+  Mg1  1  0.75000000  0.00000000  0.26200000  1.0
  Mg2+  Mg1  1  0.25000000  0.20000000  0.26200000  1.0
  Mg2+  Mg1  1  0.75000000  0.20000000  0.26200000  1.0
  Mg2+  Mg1  1  0.25000000  0.40000000  0.26200000  1.0
  Mg2+  Mg1  1  0.75000000  0.40000000  0.26200000  1.0
  Mg2+  Mg1  1  0.25000000  0.60000000  0.26200000  1.0
  Mg2+  Mg1  1  0.75000000  0.60000000  0.26200000  1.0
  Mg2+  Mg1  1  0.25000000  0.80000000  0.26200000  1.0
  Mg2+  Mg1  1  0.75000000  0.80000000  0.26200000  1.0
  W6+  W1  1  0.00000000  0.10000000  0.26420000  1.0
  W6+  W1  1  0.50000000  0.10000000  0.26420000  1.0
  W6+  W1  1  0.00000000  0.30000000  0.26420000  1.0
  W6+  W1  1  0.50000000  0.30000000  0.26420000  1.0
  W6+  W1  1  0.00000000  0.50000000  0.26420000  1.0
  W6+  W1  1  0.50000000  0.50000000  0.26420000  1.0
  W6+  W1  1  0.00000000  0.70000000  0.26420000  1.0
  W6+  W1  1  0.50000000  0.70000000  0.26420000  1.0
  W6+  W1  1  0.00000000  0.90000000  0.26420000  1.0
  W6+  W1  1  0.50000000  0.90000000  0.26420000  1.0
  W6+  W1  1  0.25000000  0.00000000  0.73580000  1.0
  W6+  W1  1  0.75000000  0.00000000  0.73580000  1.0
  W6+  W1  1  0.25000000  0.20000000  0.73580000  1.0
  W6+  W1  1  0.75000000  0.20000000  0.73580000  1.0
  W6+  W1  1  0.25000000  0.40000000  0.73580000  1.0
  W6+  W1  1  0.75000000  0.40000000  0.73580000  1.0
  W6+  W1  1  0.25000000  0.60000000  0.73580000  1.0
  W6+  W1  1  0.75000000  0.60000000  0.73580000  1.0
  W6+  W1  1  0.25000000  0.80000000  0.73580000  1.0
  W6+  W1  1  0.75000000  0.80000000  0.73580000  1.0
  O2-  O1  1  0.37650000  0.05060000  0.24500000  1.0
  O2-  O1  1  0.87650000  0.05060000  0.24500000  1.0
  O2-  O1  1  0.37650000  0.25060000  0.24500000  1.0
  O2-  O1  1  0.87650000  0.25060000  0.24500000  1.0
  O2-  O1  1  0.37650000  0.45060000  0.24500000  1.0
  O2-  O1  1  0.87650000  0.45060000  0.24500000  1.0
  O2-  O1  1  0.37650000  0.65060000  0.24500000  1.0
  O2-  O1  1  0.87650000  0.65060000  0.24500000  1.0
  O2-  O1  1  0.37650000  0.85060000  0.24500000  1.0
  O2-  O1  1  0.87650000  0.85060000  0.24500000  1.0
  O2-  O1  1  0.12350000  0.14940000  0.24500000  1.0
  O2-  O1  1  0.62350000  0.14940000  0.24500000  1.0
  O2-  O1  1  0.12350000  0.34940000  0.24500000  1.0
  O2-  O1  1  0.62350000  0.34940000  0.24500000  1.0
  O2-  O1  1  0.12350000  0.54940000  0.24500000  1.0
  O2-  O1  1  0.62350000  0.54940000  0.24500000  1.0
  O2-  O1  1  0.12350000  0.74940000  0.24500000  1.0
  O2-  O1  1  0.62350000  0.74940000  0.24500000  1.0
  O2-  O1  1  0.12350000  0.94940000  0.24500000  1.0
  O2-  O1  1  0.62350000  0.94940000  0.24500000  1.0
  O2-  O1  1  0.12650000  0.15060000  0.75500000  1.0
  O2-  O1  1  0.62650000  0.15060000  0.75500000  1.0
  O2-  O1  1  0.12650000  0.35060000  0.75500000  1.0
  O2-  O1  1  0.62650000  0.35060000  0.75500000  1.0
  O2-  O1  1  0.12650000  0.55060000  0.75500000  1.0
  O2-  O1  1  0.62650000  0.55060000  0.75500000  1.0
  O2-  O1  1  0.12650000  0.75060000  0.75500000  1.0
  O2-  O1  1  0.62650000  0.75060000  0.75500000  1.0
  O2-  O1  1  0.12650000  0.95060000  0.75500000  1.0
  O2-  O1  1  0.62650000  0.95060000  0.75500000  1.0
  O2-  O1  1  0.37350000  0.04940000  0.75500000  1.0
  O2-  O1  1  0.87350000  0.04940000  0.75500000  1.0
  O2-  O1  1  0.37350000  0.24940000  0.75500000  1.0
  O2-  O1  1  0.87350000  0.24940000  0.75500000  1.0
  O2-  O1  1  0.37350000  0.44940000  0.75500000  1.0
  O2-  O1  1  0.87350000  0.44940000  0.75500000  1.0
  O2-  O1  1  0.37350000  0.64940000  0.75500000  1.0
  O2-  O1  1  0.87350000  0.64940000  0.75500000  1.0
  O2-  O1  1  0.37350000  0.84940000  0.75500000  1.0
  O2-  O1  1  0.87350000  0.84940000  0.75500000  1.0
  O2-  O1  1  0.12350000  0.05060000  0.24500000  1.0
  O2-  O1  1  0.62350000  0.05060000  0.24500000  1.0
  O2-  O1  1  0.12350000  0.25060000  0.24500000  1.0
  O2-  O1  1  0.62350000  0.25060000  0.24500000  1.0
  O2-  O1  1  0.12350000  0.45060000  0.24500000  1.0
  O2-  O1  1  0.62350000  0.45060000  0.24500000  1.0
  O2-  O1  1  0.12350000  0.65060000  0.24500000  1.0
  O2-  O1  1  0.62350000  0.65060000  0.24500000  1.0
  O2-  O1  1  0.12350000  0.85060000  0.24500000  1.0
  O2-  O1  1  0.62350000  0.85060000  0.24500000  1.0
  O2-  O1  1  0.37650000  0.14940000  0.24500000  1.0
  O2-  O1  1  0.87650000  0.14940000  0.24500000  1.0
  O2-  O1  1  0.37650000  0.34940000  0.24500000  1.0
  O2-  O1  1  0.87650000  0.34940000  0.24500000  1.0
  O2-  O1  1  0.37650000  0.54940000  0.24500000  1.0
  O2-  O1  1  0.87650000  0.54940000  0.24500000  1.0
  O2-  O1  1  0.37650000  0.74940000  0.24500000  1.0
  O2-  O1  1  0.87650000  0.74940000  0.24500000  1.0
  O2-  O1  1  0.37650000  0.94940000  0.24500000  1.0
  O2-  O1  1  0.87650000  0.94940000  0.24500000  1.0
  O2-  O1  1  0.37350000  0.15060000  0.75500000  1.0
  O2-  O1  1  0.87350000  0.15060000  0.75500000  1.0
  O2-  O1  1  0.37350000  0.35060000  0.75500000  1.0
  O2-  O1  1  0.87350000  0.35060000  0.75500000  1.0
  O2-  O1  1  0.37350000  0.55060000  0.75500000  1.0
  O2-  O1  1  0.87350000  0.55060000  0.75500000  1.0
  O2-  O1  1  0.37350000  0.75060000  0.75500000  1.0
  O2-  O1  1  0.87350000  0.75060000  0.75500000  1.0
  O2-  O1  1  0.37350000  0.95060000  0.75500000  1.0
  O2-  O1  1  0.87350000  0.95060000  0.75500000  1.0
  O2-  O1  1  0.12650000  0.04940000  0.75500000  1.0
  O2-  O1  1  0.62650000  0.04940000  0.75500000  1.0
  O2-  O1  1  0.12650000  0.24940000  0.75500000  1.0
  O2-  O1  1  0.62650000  0.24940000  0.75500000  1.0
  O2-  O1  1  0.12650000  0.44940000  0.75500000  1.0
  O2-  O1  1  0.62650000  0.44940000  0.75500000  1.0
  O2-  O1  1  0.12650000  0.64940000  0.75500000  1.0
  O2-  O1  1  0.62650000  0.64940000  0.75500000  1.0
  O2-  O1  1  0.12650000  0.84940000  0.75500000  1.0
  O2-  O1  1  0.62650000  0.84940000  0.75500000  1.0
  O2-  O2  1  0.00000000  0.10000000  0.99300000  1.0
  O2-  O2  1  0.50000000  0.10000000  0.99300000  1.0
  O2-  O2  1  0.00000000  0.30000000  0.99300000  1.0
  O2-  O2  1  0.50000000  0.30000000  0.99300000  1.0
  O2-  O2  1  0.00000000  0.50000000  0.99300000  1.0
  O2-  O2  1  0.50000000  0.50000000  0.99300000  1.0
  O2-  O2  1  0.00000000  0.70000000  0.99300000  1.0
  O2-  O2  1  0.50000000  0.70000000  0.99300000  1.0
  O2-  O2  1  0.00000000  0.90000000  0.99300000  1.0
  O2-  O2  1  0.50000000  0.90000000  0.99300000  1.0
  O2-  O2  1  0.25000000  0.00000000  0.00700000  1.0
  O2-  O2  1  0.75000000  0.00000000  0.00700000  1.0
  O2-  O2  1  0.25000000  0.20000000  0.00700000  1.0
  O2-  O2  1  0.75000000  0.20000000  0.00700000  1.0
  O2-  O2  1  0.25000000  0.40000000  0.00700000  1.0
  O2-  O2  1  0.75000000  0.40000000  0.00700000  1.0
  O2-  O2  1  0.25000000  0.60000000  0.00700000  1.0
  O2-  O2  1  0.75000000  0.60000000  0.00700000  1.0
  O2-  O2  1  0.25000000  0.80000000  0.00700000  1.0
  O2-  O2  1  0.75000000  0.80000000  0.00700000  1.0
  O2-  O3  1  0.00000000  0.10000000  0.49100000  1.0
  O2-  O3  1  0.50000000  0.10000000  0.49100000  1.0
  O2-  O3  1  0.00000000  0.30000000  0.49100000  1.0
  O2-  O3  1  0.50000000  0.30000000  0.49100000  1.0
  O2-  O3  1  0.00000000  0.50000000  0.49100000  1.0
  O2-  O3  1  0.50000000  0.50000000  0.49100000  1.0
  O2-  O3  1  0.00000000  0.70000000  0.49100000  1.0
  O2-  O3  1  0.50000000  0.70000000  0.49100000  1.0
  O2-  O3  1  0.00000000  0.90000000  0.49100000  1.0
  O2-  O3  1  0.50000000  0.90000000  0.49100000  1.0
  O2-  O3  1  0.25000000  0.00000000  0.50900000  1.0
  O2-  O3  1  0.75000000  0.00000000  0.50900000  1.0
  O2-  O3  1  0.25000000  0.20000000  0.50900000  1.0
  O2-  O3  1  0.75000000  0.20000000  0.50900000  1.0
  O2-  O3  1  0.25000000  0.40000000  0.50900000  1.0
  O2-  O3  1  0.75000000  0.40000000  0.50900000  1.0
  O2-  O3  1  0.25000000  0.60000000  0.50900000  1.0
  O2-  O3  1  0.75000000  0.60000000  0.50900000  1.0
  O2-  O3  1  0.25000000  0.80000000  0.50900000  1.0
  O2-  O3  1  0.75000000  0.80000000  0.50900000  1.0
