# generated using pymatgen
data_Li11Nd6Zr4AlO24
_symmetry_space_group_name_H-M   'P 1'
_cell_length_a   11.09880837
_cell_length_b   11.09880837
_cell_length_c   22.19761674
_cell_angle_alpha   109.47122063
_cell_angle_beta   70.52877937
_cell_angle_gamma   70.52877937
_symmetry_Int_Tables_number   1
_chemical_formula_structural   Li11Nd6Zr4AlO24
_chemical_formula_sum   'Li44 Nd24 Zr16 Al4 O96'
_cell_volume   2104.92760657
_cell_formula_units_Z   4
loop_
 _symmetry_equiv_pos_site_id
 _symmetry_equiv_pos_as_xyz
  1  'x, y, z'
loop_
 _atom_type_symbol
 _atom_type_oxidation_number
  Li+  1.0
  Nd3+  3.0
  Zr4+  4.0
  Al3+  3.0
  O2-  -2.0
loop_
 _atom_site_type_symbol
 _atom_site_label
 _atom_site_symmetry_multiplicity
 _atom_site_fract_x
 _atom_site_fract_y
 _atom_site_fract_z
 _atom_site_occupancy
  Li+  Li0  1  0.25000000  0.62500000  0.68750000  1.0
  Li+  Li1  1  0.25000000  0.62500000  0.18750000  1.0
  Li+  Li2  1  0.37500000  0.37500000  0.37500000  1.0
  Li+  Li3  1  0.37603032  0.37469649  0.87783628  1.0
  Li+  Li4  1  0.62500000  0.75000000  0.31250000  1.0
  Li+  Li5  1  0.62500000  0.75000000  0.81250000  1.0
  Li+  Li6  1  0.87500000  0.87500000  0.37500000  1.0
  Li+  Li7  1  0.87500000  0.87500000  0.87500000  1.0
  Li+  Li8  1  0.11300000  0.91600000  0.58850000  1.0
  Li+  Li9  1  0.11300000  0.91600000  0.08850000  1.0
  Li+  Li10  1  0.38700000  0.29000000  0.26450000  1.0
  Li+  Li11  1  0.38700000  0.29000000  0.76450000  1.0
  Li+  Li12  1  0.71000000  0.52900000  0.30650000  1.0
  Li+  Li13  1  0.71000000  0.52900000  0.80650000  1.0
  Li+  Li14  1  0.67700000  0.73900000  0.60500000  1.0
  Li+  Li15  1  0.68228757  0.74108009  0.10462446  1.0
  Li+  Li16  1  0.47100000  0.61300000  0.64500000  1.0
  Li+  Li17  1  0.47027595  0.61176710  0.14157642  1.0
  Li+  Li18  1  0.88700000  0.08400000  0.41150000  1.0
  Li+  Li19  1  0.88700000  0.08400000  0.91150000  1.0
  Li+  Li20  1  0.21000000  0.67700000  0.63050000  1.0
  Li+  Li21  1  0.21000000  0.67700000  0.13050000  1.0
  Li+  Li22  1  0.97262513  0.23702842  0.70596934  1.0
  Li+  Li23  1  0.97100378  0.23819537  0.20612443  1.0
  Li+  Li24  1  0.32300000  0.26100000  0.39500000  1.0
  Li+  Li25  1  0.32300000  0.26100000  0.89500000  1.0
  Li+  Li26  1  0.52900000  0.38700000  0.35500000  1.0
  Li+  Li27  1  0.52900000  0.38700000  0.85500000  1.0
  Li+  Li28  1  0.17884333  0.11015957  0.54434967  1.0
  Li+  Li29  1  0.17700000  0.11300000  0.04200000  1.0
  Li+  Li30  1  0.61300000  0.67700000  0.70800000  1.0
  Li+  Li31  1  0.61300000  0.67700000  0.20800000  1.0
  Li+  Li32  1  0.76100000  0.82300000  0.35500000  1.0
  Li+  Li33  1  0.76100000  0.82300000  0.85500000  1.0
  Li+  Li34  1  0.73900000  0.47100000  0.54200000  1.0
  Li+  Li35  1  0.74333993  0.46869030  0.04287315  1.0
  Li+  Li36  1  0.91600000  0.26100000  0.73550000  1.0
  Li+  Li37  1  0.91600000  0.26100000  0.23550000  1.0
  Li+  Li38  1  0.47100000  0.91600000  0.36950000  1.0
  Li+  Li39  1  0.47100000  0.91600000  0.86950000  1.0
  Li+  Li40  1  0.82300000  0.29000000  0.38050000  1.0
  Li+  Li41  1  0.82300000  0.29000000  0.88050000  1.0
  Li+  Li42  1  0.26100000  0.52900000  0.45800000  1.0
  Li+  Li43  1  0.26100000  0.52900000  0.95800000  1.0
  Nd3+  Nd44  1  0.75000000  0.62500000  0.43750000  1.0
  Nd3+  Nd45  1  0.75164604  0.62574949  0.93872839  1.0
  Nd3+  Nd46  1  0.25000000  0.87500000  0.31250000  1.0
  Nd3+  Nd47  1  0.25000000  0.87500000  0.81250000  1.0
  Nd3+  Nd48  1  0.12500000  0.62500000  0.37500000  1.0
  Nd3+  Nd49  1  0.12684215  0.62786264  0.86991432  1.0
  Nd3+  Nd50  1  0.37500000  0.87500000  0.62500000  1.0
  Nd3+  Nd51  1  0.37500000  0.87500000  0.12500000  1.0
  Nd3+  Nd52  1  0.37500000  0.75000000  0.43750000  1.0
  Nd3+  Nd53  1  0.37500000  0.75000000  0.93750000  1.0
  Nd3+  Nd54  1  0.12500000  0.25000000  0.31250000  1.0
  Nd3+  Nd55  1  0.12500000  0.25000000  0.81250000  1.0
  Nd3+  Nd56  1  0.25305144  0.37563490  0.56199927  1.0
  Nd3+  Nd57  1  0.25000000  0.37500000  0.06250000  1.0
  Nd3+  Nd58  1  0.75229228  0.11979183  0.68492688  1.0
  Nd3+  Nd59  1  0.74934119  0.12106981  0.18810869  1.0
  Nd3+  Nd60  1  0.87284257  0.37661378  0.62037997  1.0
  Nd3+  Nd61  1  0.87500000  0.37500000  0.12500000  1.0
  Nd3+  Nd62  1  0.62611096  0.12322753  0.37505625  1.0
  Nd3+  Nd63  1  0.62500000  0.12500000  0.87500000  1.0
  Nd3+  Nd64  1  0.62582316  0.25054655  0.55933878  1.0
  Nd3+  Nd65  1  0.62360567  0.25205353  0.06275746  1.0
  Nd3+  Nd66  1  0.87857347  0.74623036  0.69046269  1.0
  Nd3+  Nd67  1  0.87412901  0.75285198  0.18803072  1.0
  Zr4+  Zr68  1  0.00000000  0.50000000  0.75000000  1.0
  Zr4+  Zr69  1  0.00000000  0.50000000  0.25000000  1.0
  Zr4+  Zr70  1  0.50000000  0.50000000  0.50000000  1.0
  Zr4+  Zr71  1  0.49145940  0.49691956  0.99852313  1.0
  Zr4+  Zr72  1  0.99843639  0.99668406  0.49916438  1.0
  Zr4+  Zr73  1  0.00000000  0.00000000  0.00000000  1.0
  Zr4+  Zr74  1  0.50000000  0.00000000  0.75000000  1.0
  Zr4+  Zr75  1  0.50210747  0.99824389  0.24736401  1.0
  Zr4+  Zr76  1  0.00321655  0.49816931  0.50354770  1.0
  Zr4+  Zr77  1  0.00000000  0.50000000  0.00000000  1.0
  Zr4+  Zr78  1  0.50000000  0.50000000  0.75000000  1.0
  Zr4+  Zr79  1  0.50000000  0.50000000  0.25000000  1.0
  Zr4+  Zr80  1  0.50000000  0.00000000  0.50000000  1.0
  Zr4+  Zr81  1  0.49798653  0.00260791  0.99725319  1.0
  Zr4+  Zr82  1  0.00000000  0.00000000  0.75000000  1.0
  Zr4+  Zr83  1  0.00000000  0.00000000  0.25000000  1.0
  Al3+  Al84  1  0.75000000  0.87500000  0.56250000  1.0
  Al3+  Al85  1  0.75000000  0.87500000  0.06250000  1.0
  Al3+  Al86  1  0.25000000  0.12500000  0.43750000  1.0
  Al3+  Al87  1  0.25000000  0.12500000  0.93750000  1.0
  O2-  O88  1  0.90390000  0.68240000  0.48765000  1.0
  O2-  O89  1  0.90625733  0.68120408  0.98477242  1.0
  O2-  O90  1  0.59610000  0.87920000  0.54315000  1.0
  O2-  O91  1  0.59610000  0.87920000  0.04315000  1.0
  O2-  O92  1  0.29290000  0.62080000  0.26235000  1.0
  O2-  O93  1  0.29446413  0.61808685  0.76466751  1.0
  O2-  O94  1  0.20710000  0.81760000  0.70685000  1.0
  O2-  O95  1  0.20710000  0.81760000  0.20685000  1.0
  O2-  O96  1  0.37920000  0.52470000  0.35355000  1.0
  O2-  O97  1  0.37914972  0.52553629  0.85179949  1.0
  O2-  O98  1  0.18824905  0.41359421  0.39818269  1.0
  O2-  O99  1  0.18240000  0.41370000  0.89645000  1.0
  O2-  O100  1  0.31760000  0.97530000  0.54805000  1.0
  O2-  O101  1  0.31760000  0.97530000  0.04805000  1.0
  O2-  O102  1  0.12009429  0.09065141  0.70424362  1.0
  O2-  O103  1  0.11979537  0.08658042  0.20083628  1.0
  O2-  O104  1  0.58630000  0.79290000  0.40880000  1.0
  O2-  O105  1  0.58630000  0.79290000  0.90880000  1.0
  O2-  O106  1  0.47530000  0.70710000  0.31040000  1.0
  O2-  O107  1  0.47530000  0.70710000  0.81040000  1.0
  O2-  O108  1  0.91370000  0.40390000  0.43960000  1.0
  O2-  O109  1  0.91370000  0.40390000  0.93960000  1.0
  O2-  O110  1  0.02470000  0.09610000  0.34120000  1.0
  O2-  O111  1  0.02470000  0.09610000  0.84120000  1.0
  O2-  O112  1  0.09610000  0.31760000  0.51235000  1.0
  O2-  O113  1  0.09610000  0.31760000  0.01235000  1.0
  O2-  O114  1  0.39939686  0.12217775  0.45719995  1.0
  O2-  O115  1  0.40390000  0.12080000  0.95685000  1.0
  O2-  O116  1  0.70822455  0.37805717  0.74015724  1.0
  O2-  O117  1  0.70710000  0.37920000  0.23765000  1.0
  O2-  O118  1  0.79290000  0.18240000  0.29315000  1.0
  O2-  O119  1  0.79290000  0.18240000  0.79315000  1.0
  O2-  O120  1  0.62080000  0.47530000  0.64645000  1.0
  O2-  O121  1  0.62080000  0.47530000  0.14645000  1.0
  O2-  O122  1  0.81760000  0.58630000  0.60355000  1.0
  O2-  O123  1  0.81760000  0.58630000  0.10355000  1.0
  O2-  O124  1  0.68240000  0.02470000  0.45195000  1.0
  O2-  O125  1  0.68388567  0.02279735  0.95256091  1.0
  O2-  O126  1  0.87920000  0.91370000  0.29805000  1.0
  O2-  O127  1  0.87920000  0.91370000  0.79805000  1.0
  O2-  O128  1  0.41370000  0.20710000  0.59120000  1.0
  O2-  O129  1  0.41370000  0.20710000  0.09120000  1.0
  O2-  O130  1  0.52470000  0.29290000  0.68960000  1.0
  O2-  O131  1  0.52827743  0.28703909  0.19072309  1.0
  O2-  O132  1  0.08630000  0.59610000  0.56040000  1.0
  O2-  O133  1  0.08546242  0.59774991  0.05992607  1.0
  O2-  O134  1  0.97530000  0.90390000  0.65880000  1.0
  O2-  O135  1  0.97530000  0.90390000  0.15880000  1.0
  O2-  O136  1  0.08630000  0.31760000  0.64645000  1.0
  O2-  O137  1  0.08908869  0.32142654  0.14761227  1.0
  O2-  O138  1  0.97530000  0.12080000  0.60355000  1.0
  O2-  O139  1  0.97530000  0.12080000  0.10355000  1.0
  O2-  O140  1  0.41370000  0.37920000  0.45195000  1.0
  O2-  O141  1  0.41420864  0.37922550  0.95337448  1.0
  O2-  O142  1  0.52470000  0.18240000  0.29805000  1.0
  O2-  O143  1  0.52470000  0.18240000  0.79805000  1.0
  O2-  O144  1  0.40390000  0.47530000  0.59120000  1.0
  O2-  O145  1  0.40482041  0.47989013  0.09229148  1.0
  O2-  O146  1  0.09610000  0.58630000  0.68960000  1.0
  O2-  O147  1  0.09610000  0.58630000  0.18960000  1.0
  O2-  O148  1  0.79290000  0.02470000  0.56040000  1.0
  O2-  O149  1  0.79183907  0.02521354  0.05583679  1.0
  O2-  O150  1  0.70710000  0.91370000  0.65880000  1.0
  O2-  O151  1  0.70451878  0.91663025  0.15827530  1.0
  O2-  O152  1  0.88077864  0.20834667  0.51179521  1.0
  O2-  O153  1  0.87920000  0.20710000  0.01235000  1.0
  O2-  O154  1  0.68381642  0.28870650  0.45892635  1.0
  O2-  O155  1  0.68240000  0.29290000  0.95685000  1.0
  O2-  O156  1  0.81760000  0.59610000  0.73765000  1.0
  O2-  O157  1  0.81760000  0.59610000  0.23765000  1.0
  O2-  O158  1  0.62250386  0.90059273  0.29546828  1.0
  O2-  O159  1  0.61913445  0.90375674  0.79348648  1.0
  O2-  O160  1  0.91370000  0.68240000  0.35355000  1.0
  O2-  O161  1  0.91370000  0.68240000  0.85355000  1.0
  O2-  O162  1  0.02470000  0.87920000  0.39645000  1.0
  O2-  O163  1  0.02470000  0.87920000  0.89645000  1.0
  O2-  O164  1  0.58630000  0.62080000  0.54805000  1.0
  O2-  O165  1  0.58970801  0.62266436  0.05186154  1.0
  O2-  O166  1  0.47530000  0.81760000  0.70195000  1.0
  O2-  O167  1  0.47229213  0.81532384  0.20322404  1.0
  O2-  O168  1  0.59610000  0.52470000  0.40880000  1.0
  O2-  O169  1  0.59610000  0.52470000  0.90880000  1.0
  O2-  O170  1  0.90390000  0.41370000  0.31040000  1.0
  O2-  O171  1  0.90390000  0.41370000  0.81040000  1.0
  O2-  O172  1  0.20710000  0.97530000  0.43960000  1.0
  O2-  O173  1  0.20710000  0.97530000  0.93960000  1.0
  O2-  O174  1  0.29290000  0.08630000  0.34120000  1.0
  O2-  O175  1  0.29290000  0.08630000  0.84120000  1.0
  O2-  O176  1  0.12080000  0.79290000  0.48765000  1.0
  O2-  O177  1  0.12080000  0.79290000  0.98765000  1.0
  O2-  O178  1  0.31747412  0.70776660  0.54142925  1.0
  O2-  O179  1  0.31760000  0.70710000  0.04315000  1.0
  O2-  O180  1  0.18240000  0.40390000  0.26235000  1.0
  O2-  O181  1  0.18240000  0.40390000  0.76235000  1.0
  O2-  O182  1  0.37920000  0.09610000  0.70685000  1.0
  O2-  O183  1  0.37920000  0.09610000  0.20685000  1.0
