# generated using pymatgen
data_Li11Nd6Zr4AlO24
_symmetry_space_group_name_H-M   'P 1'
_cell_length_a   22.20007255
_cell_length_b   11.10003627
_cell_length_c   11.10003627
_cell_angle_alpha   70.52877937
_cell_angle_beta   70.52877937
_cell_angle_gamma   109.47122063
_symmetry_Int_Tables_number   1
_chemical_formula_structural   Li11Nd6Zr4AlO24
_chemical_formula_sum   'Li44 Nd24 Zr16 Al4 O96'
_cell_volume   2105.62631133
_cell_formula_units_Z   4
loop_
 _symmetry_equiv_pos_site_id
 _symmetry_equiv_pos_as_xyz
  1  'x, y, z'
loop_
 _atom_type_symbol
 _atom_type_oxidation_number
  Li+  1.0
  Nd3+  3.0
  Zr4+  4.0
  Al3+  3.0
  O2-  -2.0
loop_
 _atom_site_type_symbol
 _atom_site_label
 _atom_site_symmetry_multiplicity
 _atom_site_fract_x
 _atom_site_fract_y
 _atom_site_fract_z
 _atom_site_occupancy
  Li+  Li0  1  0.93750000  0.41666667  0.37500000  1.0
  Li+  Li1  1  0.43750000  0.41666667  0.37500000  1.0
  Li+  Li2  1  0.62500000  0.29166667  0.62500000  1.0
  Li+  Li3  1  0.12500000  0.29166667  0.62500000  1.0
  Li+  Li4  1  0.56250000  0.04166667  0.25000000  1.0
  Li+  Li5  1  0.06250000  0.04166667  0.25000000  1.0
  Li+  Li6  1  0.62500000  0.79166667  0.12500000  1.0
  Li+  Li7  1  0.12500000  0.79166667  0.12500000  1.0
  Li+  Li8  1  0.83850000  0.55366667  0.08400000  1.0
  Li+  Li9  1  0.33850000  0.55366667  0.08400000  1.0
  Li+  Li10  1  0.51450000  0.27966667  0.71000000  1.0
  Li+  Li11  1  0.01450000  0.27966667  0.71000000  1.0
  Li+  Li12  1  0.55650000  0.95666667  0.47100000  1.0
  Li+  Li13  1  0.05650000  0.95666667  0.47100000  1.0
  Li+  Li14  1  0.85500000  0.98966667  0.26100000  1.0
  Li+  Li15  1  0.35500000  0.98966667  0.26100000  1.0
  Li+  Li16  1  0.89500000  0.19566667  0.38700000  1.0
  Li+  Li17  1  0.39500000  0.19566667  0.38700000  1.0
  Li+  Li18  1  0.66150000  0.77966667  0.91600000  1.0
  Li+  Li19  1  0.16150000  0.77966667  0.91600000  1.0
  Li+  Li20  1  0.88050000  0.45666667  0.32300000  1.0
  Li+  Li21  1  0.38050000  0.45666667  0.32300000  1.0
  Li+  Li22  1  0.95800000  0.69566667  0.76100000  1.0
  Li+  Li23  1  0.45800000  0.69566667  0.76100000  1.0
  Li+  Li24  1  0.64500000  0.34366667  0.73900000  1.0
  Li+  Li25  1  0.14500000  0.34366667  0.73900000  1.0
  Li+  Li26  1  0.60500000  0.13766667  0.61300000  1.0
  Li+  Li27  1  0.10500000  0.13766667  0.61300000  1.0
  Li+  Li28  1  0.79200000  0.48966667  0.88700000  1.0
  Li+  Li29  1  0.29200000  0.48966667  0.88700000  1.0
  Li+  Li30  1  0.95800000  0.05366667  0.32300000  1.0
  Li+  Li31  1  0.45800000  0.05366667  0.32300000  1.0
  Li+  Li32  1  0.60500000  0.90566667  0.17700000  1.0
  Li+  Li33  1  0.10500000  0.90566667  0.17700000  1.0
  Li+  Li34  1  0.79200000  0.92766667  0.52900000  1.0
  Li+  Li35  1  0.29200000  0.92766667  0.52900000  1.0
  Li+  Li36  1  0.98550000  0.75066667  0.73900000  1.0
  Li+  Li37  1  0.48550000  0.75066667  0.73900000  1.0
  Li+  Li38  1  0.61950000  0.19566667  0.08400000  1.0
  Li+  Li39  1  0.11950000  0.19566667  0.08400000  1.0
  Li+  Li40  1  0.63050000  0.84366667  0.71000000  1.0
  Li+  Li41  1  0.13050000  0.84366667  0.71000000  1.0
  Li+  Li42  1  0.70800000  0.40566667  0.47100000  1.0
  Li+  Li43  1  0.20800000  0.40566667  0.47100000  1.0
  Nd3+  Nd44  1  0.68750000  0.91666667  0.37500000  1.0
  Nd3+  Nd45  1  0.18750000  0.91666667  0.37500000  1.0
  Nd3+  Nd46  1  0.56250000  0.41666667  0.12500000  1.0
  Nd3+  Nd47  1  0.06250000  0.41666667  0.12500000  1.0
  Nd3+  Nd48  1  0.62500000  0.54166667  0.37500000  1.0
  Nd3+  Nd49  1  0.12500000  0.54166667  0.37500000  1.0
  Nd3+  Nd50  1  0.87500000  0.29166667  0.12500000  1.0
  Nd3+  Nd51  1  0.37500000  0.29166667  0.12500000  1.0
  Nd3+  Nd52  1  0.68750000  0.29166667  0.25000000  1.0
  Nd3+  Nd53  1  0.18750000  0.29166667  0.25000000  1.0
  Nd3+  Nd54  1  0.56250000  0.54166667  0.75000000  1.0
  Nd3+  Nd55  1  0.06250000  0.54166667  0.75000000  1.0
  Nd3+  Nd56  1  0.81250000  0.41666667  0.62500000  1.0
  Nd3+  Nd57  1  0.31250000  0.41666667  0.62500000  1.0
  Nd3+  Nd58  1  0.93750000  0.91666667  0.87500000  1.0
  Nd3+  Nd59  1  0.43750000  0.91666667  0.87500000  1.0
  Nd3+  Nd60  1  0.87500000  0.79166667  0.62500000  1.0
  Nd3+  Nd61  1  0.37500000  0.79166667  0.62500000  1.0
  Nd3+  Nd62  1  0.62500000  0.04166667  0.87500000  1.0
  Nd3+  Nd63  1  0.12500000  0.04166667  0.87500000  1.0
  Nd3+  Nd64  1  0.81250000  0.04166667  0.75000000  1.0
  Nd3+  Nd65  1  0.31250000  0.04166667  0.75000000  1.0
  Nd3+  Nd66  1  0.93750000  0.79166667  0.25000000  1.0
  Nd3+  Nd67  1  0.43750000  0.79166667  0.25000000  1.0
  Zr4+  Zr68  1  0.00000000  0.66666667  0.50000000  1.0
  Zr4+  Zr69  1  0.50000000  0.66666667  0.50000000  1.0
  Zr4+  Zr70  1  0.75000000  0.16666667  0.50000000  1.0
  Zr4+  Zr71  1  0.25000000  0.16666667  0.50000000  1.0
  Zr4+  Zr72  1  0.75000000  0.66666667  0.00000000  1.0
  Zr4+  Zr73  1  0.25000000  0.66666667  0.00000000  1.0
  Zr4+  Zr74  1  0.00000000  0.16666667  0.00000000  1.0
  Zr4+  Zr75  1  0.50000000  0.16666667  0.00000000  1.0
  Zr4+  Zr76  1  0.75000000  0.66666667  0.50000000  1.0
  Zr4+  Zr77  1  0.25000000  0.66666667  0.50000000  1.0
  Zr4+  Zr78  1  0.00000000  0.16666667  0.50000000  1.0
  Zr4+  Zr79  1  0.50000000  0.16666667  0.50000000  1.0
  Zr4+  Zr80  1  0.75000000  0.16666667  0.00000000  1.0
  Zr4+  Zr81  1  0.25000000  0.16666667  0.00000000  1.0
  Zr4+  Zr82  1  0.00000000  0.66666667  0.00000000  1.0
  Zr4+  Zr83  1  0.50000000  0.66666667  0.00000000  1.0
  Al3+  Al84  1  0.81250000  0.91666667  0.12500000  1.0
  Al3+  Al85  1  0.31250000  0.91666667  0.12500000  1.0
  Al3+  Al86  1  0.68750000  0.41666667  0.87500000  1.0
  Al3+  Al87  1  0.18750000  0.41666667  0.87500000  1.0
  O2-  O88  1  0.73765000  0.76276667  0.31760000  1.0
  O2-  O89  1  0.23765000  0.76276667  0.31760000  1.0
  O2-  O90  1  0.79315000  0.07056667  0.12080000  1.0
  O2-  O91  1  0.29315000  0.07056667  0.12080000  1.0
  O2-  O92  1  0.51235000  0.37376667  0.37920000  1.0
  O2-  O93  1  0.01235000  0.37376667  0.37920000  1.0
  O2-  O94  1  0.95685000  0.45956667  0.18240000  1.0
  O2-  O95  1  0.45685000  0.45956667  0.18240000  1.0
  O2-  O96  1  0.60355000  0.28746667  0.47530000  1.0
  O2-  O97  1  0.10355000  0.28746667  0.47530000  1.0
  O2-  O98  1  0.64645000  0.48426667  0.58630000  1.0
  O2-  O99  1  0.14645000  0.48426667  0.58630000  1.0
  O2-  O100  1  0.79805000  0.34906667  0.02470000  1.0
  O2-  O101  1  0.29805000  0.34906667  0.02470000  1.0
  O2-  O102  1  0.95195000  0.54586667  0.91370000  1.0
  O2-  O103  1  0.45195000  0.54586667  0.91370000  1.0
  O2-  O104  1  0.65880000  0.08036667  0.20710000  1.0
  O2-  O105  1  0.15880000  0.08036667  0.20710000  1.0
  O2-  O106  1  0.56040000  0.19136667  0.29290000  1.0
  O2-  O107  1  0.06040000  0.19136667  0.29290000  1.0
  O2-  O108  1  0.68960000  0.75296667  0.59610000  1.0
  O2-  O109  1  0.18960000  0.75296667  0.59610000  1.0
  O2-  O110  1  0.59120000  0.64196667  0.90390000  1.0
  O2-  O111  1  0.09120000  0.64196667  0.90390000  1.0
  O2-  O112  1  0.76235000  0.57056667  0.68240000  1.0
  O2-  O113  1  0.26235000  0.57056667  0.68240000  1.0
  O2-  O114  1  0.70685000  0.26276667  0.87920000  1.0
  O2-  O115  1  0.20685000  0.26276667  0.87920000  1.0
  O2-  O116  1  0.98765000  0.95956667  0.62080000  1.0
  O2-  O117  1  0.48765000  0.95956667  0.62080000  1.0
  O2-  O118  1  0.54315000  0.87376667  0.81760000  1.0
  O2-  O119  1  0.04315000  0.87376667  0.81760000  1.0
  O2-  O120  1  0.89645000  0.04586667  0.52470000  1.0
  O2-  O121  1  0.39645000  0.04586667  0.52470000  1.0
  O2-  O122  1  0.85355000  0.84906667  0.41370000  1.0
  O2-  O123  1  0.35355000  0.84906667  0.41370000  1.0
  O2-  O124  1  0.70195000  0.98426667  0.97530000  1.0
  O2-  O125  1  0.20195000  0.98426667  0.97530000  1.0
  O2-  O126  1  0.54805000  0.78746667  0.08630000  1.0
  O2-  O127  1  0.04805000  0.78746667  0.08630000  1.0
  O2-  O128  1  0.84120000  0.25296667  0.79290000  1.0
  O2-  O129  1  0.34120000  0.25296667  0.79290000  1.0
  O2-  O130  1  0.93960000  0.14196667  0.70710000  1.0
  O2-  O131  1  0.43960000  0.14196667  0.70710000  1.0
  O2-  O132  1  0.81040000  0.58036667  0.40390000  1.0
  O2-  O133  1  0.31040000  0.58036667  0.40390000  1.0
  O2-  O134  1  0.90880000  0.69136667  0.09610000  1.0
  O2-  O135  1  0.40880000  0.69136667  0.09610000  1.0
  O2-  O136  1  0.89645000  0.58036667  0.68240000  1.0
  O2-  O137  1  0.39645000  0.58036667  0.68240000  1.0
  O2-  O138  1  0.85355000  0.69136667  0.87920000  1.0
  O2-  O139  1  0.35355000  0.69136667  0.87920000  1.0
  O2-  O140  1  0.70195000  0.25296667  0.62080000  1.0
  O2-  O141  1  0.20195000  0.25296667  0.62080000  1.0
  O2-  O142  1  0.54805000  0.14196667  0.81760000  1.0
  O2-  O143  1  0.04805000  0.14196667  0.81760000  1.0
  O2-  O144  1  0.84120000  0.26276667  0.52470000  1.0
  O2-  O145  1  0.34120000  0.26276667  0.52470000  1.0
  O2-  O146  1  0.93960000  0.57056667  0.41370000  1.0
  O2-  O147  1  0.43960000  0.57056667  0.41370000  1.0
  O2-  O148  1  0.81040000  0.87376667  0.97530000  1.0
  O2-  O149  1  0.31040000  0.87376667  0.97530000  1.0
  O2-  O150  1  0.90880000  0.95956667  0.08630000  1.0
  O2-  O151  1  0.40880000  0.95956667  0.08630000  1.0
  O2-  O152  1  0.76235000  0.78746667  0.79290000  1.0
  O2-  O153  1  0.26235000  0.78746667  0.79290000  1.0
  O2-  O154  1  0.70685000  0.98426667  0.70710000  1.0
  O2-  O155  1  0.20685000  0.98426667  0.70710000  1.0
  O2-  O156  1  0.98765000  0.84906667  0.40390000  1.0
  O2-  O157  1  0.48765000  0.84906667  0.40390000  1.0
  O2-  O158  1  0.54315000  0.04586667  0.09610000  1.0
  O2-  O159  1  0.04315000  0.04586667  0.09610000  1.0
  O2-  O160  1  0.60355000  0.75296667  0.31760000  1.0
  O2-  O161  1  0.10355000  0.75296667  0.31760000  1.0
  O2-  O162  1  0.64645000  0.64196667  0.12080000  1.0
  O2-  O163  1  0.14645000  0.64196667  0.12080000  1.0
  O2-  O164  1  0.79805000  0.08036667  0.37920000  1.0
  O2-  O165  1  0.29805000  0.08036667  0.37920000  1.0
  O2-  O166  1  0.95195000  0.19136667  0.18240000  1.0
  O2-  O167  1  0.45195000  0.19136667  0.18240000  1.0
  O2-  O168  1  0.65880000  0.07056667  0.47530000  1.0
  O2-  O169  1  0.15880000  0.07056667  0.47530000  1.0
  O2-  O170  1  0.56040000  0.76276667  0.58630000  1.0
  O2-  O171  1  0.06040000  0.76276667  0.58630000  1.0
  O2-  O172  1  0.68960000  0.45956667  0.02470000  1.0
  O2-  O173  1  0.18960000  0.45956667  0.02470000  1.0
  O2-  O174  1  0.59120000  0.37376667  0.91370000  1.0
  O2-  O175  1  0.09120000  0.37376667  0.91370000  1.0
  O2-  O176  1  0.73765000  0.54586667  0.20710000  1.0
  O2-  O177  1  0.23765000  0.54586667  0.20710000  1.0
  O2-  O178  1  0.79315000  0.34906667  0.29290000  1.0
  O2-  O179  1  0.29315000  0.34906667  0.29290000  1.0
  O2-  O180  1  0.51235000  0.48426667  0.59610000  1.0
  O2-  O181  1  0.01235000  0.48426667  0.59610000  1.0
  O2-  O182  1  0.95685000  0.28746667  0.90390000  1.0
  O2-  O183  1  0.45685000  0.28746667  0.90390000  1.0
