# generated using pymatgen
data_Li11Nd6Zr4AlO24
_symmetry_space_group_name_H-M   'P 1'
_cell_length_a   11.09880837
_cell_length_b   22.19761674
_cell_length_c   11.09880837
_cell_angle_alpha   109.47122063
_cell_angle_beta   109.47122063
_cell_angle_gamma   109.47122063
_symmetry_Int_Tables_number   1
_chemical_formula_structural   Li11Nd6Zr4AlO24
_chemical_formula_sum   'Li44 Nd24 Zr16 Al4 O96'
_cell_volume   2104.92760657
_cell_formula_units_Z   4
loop_
 _symmetry_equiv_pos_site_id
 _symmetry_equiv_pos_as_xyz
  1  'x, y, z'
loop_
 _atom_type_symbol
 _atom_type_oxidation_number
  Li+  1.0
  Nd3+  3.0
  Zr4+  4.0
  Al3+  3.0
  O2-  -2.0
loop_
 _atom_site_type_symbol
 _atom_site_label
 _atom_site_symmetry_multiplicity
 _atom_site_fract_x
 _atom_site_fract_y
 _atom_site_fract_z
 _atom_site_occupancy
  Li+  Li0  1  0.25000000  0.06250000  0.37500000  1.0
  Li+  Li0  1  0.25000000  0.56250000  0.37500000  1.0
  Li+  Li1  1  0.37500000  0.37500000  0.62500000  1.0
  Li+  Li1  1  0.37500000  0.87500000  0.62500000  1.0
  Li+  Li2  1  0.62500000  0.43750000  0.25000000  1.0
  Li+  Li2  1  0.62500000  0.93750000  0.25000000  1.0
  Li+  Li3  1  0.87500000  0.37500000  0.12500000  1.0
  Li+  Li3  1  0.87500000  0.87500000  0.12500000  1.0
  Li+  Li4  1  0.11300000  0.16150000  0.08400000  1.0
  Li+  Li4  1  0.11300000  0.66150000  0.08400000  1.0
  Li+  Li5  1  0.38700000  0.48550000  0.71000000  1.0
  Li+  Li5  1  0.38700000  0.98550000  0.71000000  1.0
  Li+  Li6  1  0.71000000  0.44350000  0.47100000  1.0
  Li+  Li6  1  0.71000000  0.94350000  0.47100000  1.0
  Li+  Li7  1  0.67700000  0.14500000  0.26100000  1.0
  Li+  Li7  1  0.67700000  0.64500000  0.26100000  1.0
  Li+  Li8  1  0.47100000  0.10500000  0.38700000  1.0
  Li+  Li8  1  0.47100000  0.60500000  0.38700000  1.0
  Li+  Li9  1  0.88700000  0.33850000  0.91600000  1.0
  Li+  Li9  1  0.88700000  0.83850000  0.91600000  1.0
  Li+  Li10  1  0.21000000  0.11950000  0.32300000  1.0
  Li+  Li10  1  0.21000000  0.61950000  0.32300000  1.0
  Li+  Li11  1  0.97100000  0.04200000  0.76100000  1.0
  Li+  Li11  1  0.97100000  0.54200000  0.76100000  1.0
  Li+  Li12  1  0.32300000  0.35500000  0.73900000  1.0
  Li+  Li12  1  0.32300000  0.85500000  0.73900000  1.0
  Li+  Li13  1  0.52900000  0.39500000  0.61300000  1.0
  Li+  Li13  1  0.52900000  0.89500000  0.61300000  1.0
  Li+  Li14  1  0.17700000  0.20800000  0.88700000  1.0
  Li+  Li14  1  0.17700000  0.70800000  0.88700000  1.0
  Li+  Li15  1  0.61300000  0.04200000  0.32300000  1.0
  Li+  Li15  1  0.61300000  0.54200000  0.32300000  1.0
  Li+  Li16  1  0.76100000  0.39500000  0.17700000  1.0
  Li+  Li16  1  0.76100000  0.89500000  0.17700000  1.0
  Li+  Li17  1  0.73900000  0.20800000  0.52900000  1.0
  Li+  Li17  1  0.73900000  0.70800000  0.52900000  1.0
  Li+  Li18  1  0.91600000  0.01450000  0.73900000  1.0
  Li+  Li18  1  0.91600000  0.51450000  0.73900000  1.0
  Li+  Li19  1  0.47100000  0.38050000  0.08400000  1.0
  Li+  Li19  1  0.47100000  0.88050000  0.08400000  1.0
  Li+  Li20  1  0.82300000  0.36950000  0.71000000  1.0
  Li+  Li20  1  0.82300000  0.86950000  0.71000000  1.0
  Li+  Li21  1  0.26100000  0.29200000  0.47100000  1.0
  Li+  Li21  1  0.26100000  0.79200000  0.47100000  1.0
  Nd3+  Nd1  1  0.75000000  0.31250000  0.37500000  1.0
  Nd3+  Nd1  1  0.75000000  0.81250000  0.37500000  1.0
  Nd3+  Nd1  1  0.25000000  0.43750000  0.12500000  1.0
  Nd3+  Nd1  1  0.25000000  0.93750000  0.12500000  1.0
  Nd3+  Nd1  1  0.12500000  0.37500000  0.37500000  1.0
  Nd3+  Nd1  1  0.12500000  0.87500000  0.37500000  1.0
  Nd3+  Nd1  1  0.37500000  0.12500000  0.12500000  1.0
  Nd3+  Nd1  1  0.37500000  0.62500000  0.12500000  1.0
  Nd3+  Nd1  1  0.37500000  0.31250000  0.25000000  1.0
  Nd3+  Nd1  1  0.37500000  0.81250000  0.25000000  1.0
  Nd3+  Nd1  1  0.12500000  0.43750000  0.75000000  1.0
  Nd3+  Nd1  1  0.12500000  0.93750000  0.75000000  1.0
  Nd3+  Nd1  1  0.25000000  0.18750000  0.62500000  1.0
  Nd3+  Nd1  1  0.25000000  0.68750000  0.62500000  1.0
  Nd3+  Nd1  1  0.75000000  0.06250000  0.87500000  1.0
  Nd3+  Nd1  1  0.75000000  0.56250000  0.87500000  1.0
  Nd3+  Nd1  1  0.87500000  0.12500000  0.62500000  1.0
  Nd3+  Nd1  1  0.87500000  0.62500000  0.62500000  1.0
  Nd3+  Nd1  1  0.62500000  0.37500000  0.87500000  1.0
  Nd3+  Nd1  1  0.62500000  0.87500000  0.87500000  1.0
  Nd3+  Nd1  1  0.62500000  0.18750000  0.75000000  1.0
  Nd3+  Nd1  1  0.62500000  0.68750000  0.75000000  1.0
  Nd3+  Nd1  1  0.87500000  0.06250000  0.25000000  1.0
  Nd3+  Nd1  1  0.87500000  0.56250000  0.25000000  1.0
  Zr4+  Zr1  1  0.00000000  0.00000000  0.50000000  1.0
  Zr4+  Zr1  1  0.00000000  0.50000000  0.50000000  1.0
  Zr4+  Zr1  1  0.50000000  0.25000000  0.50000000  1.0
  Zr4+  Zr1  1  0.50000000  0.75000000  0.50000000  1.0
  Zr4+  Zr1  1  0.00000000  0.25000000  0.00000000  1.0
  Zr4+  Zr1  1  0.00000000  0.75000000  0.00000000  1.0
  Zr4+  Zr1  1  0.50000000  0.00000000  0.00000000  1.0
  Zr4+  Zr1  1  0.50000000  0.50000000  0.00000000  1.0
  Zr4+  Zr1  1  0.00000000  0.25000000  0.50000000  1.0
  Zr4+  Zr1  1  0.00000000  0.75000000  0.50000000  1.0
  Zr4+  Zr1  1  0.50000000  0.00000000  0.50000000  1.0
  Zr4+  Zr1  1  0.50000000  0.50000000  0.50000000  1.0
  Zr4+  Zr1  1  0.50000000  0.25000000  0.00000000  1.0
  Zr4+  Zr1  1  0.50000000  0.75000000  0.00000000  1.0
  Zr4+  Zr1  1  0.00000000  0.00000000  0.00000000  1.0
  Zr4+  Zr1  1  0.00000000  0.50000000  1.00000000  1.0
  Al3+  Al42  1  0.75000000  0.18750000  0.12500000  1.0
  Al3+  Al42  1  0.75000000  0.68750000  0.12500000  1.0
  Al3+  Al43  1  0.25000000  0.31250000  0.87500000  1.0
  Al3+  Al43  1  0.25000000  0.81250000  0.87500000  1.0
  O2-  O2  1  0.90390000  0.26235000  0.31760000  1.0
  O2-  O2  1  0.90390000  0.76235000  0.31760000  1.0
  O2-  O2  1  0.59610000  0.20685000  0.12080000  1.0
  O2-  O2  1  0.59610000  0.70685000  0.12080000  1.0
  O2-  O2  1  0.29290000  0.48765000  0.37920000  1.0
  O2-  O2  1  0.29290000  0.98765000  0.37920000  1.0
  O2-  O2  1  0.20710000  0.04315000  0.18240000  1.0
  O2-  O2  1  0.20710000  0.54315000  0.18240000  1.0
  O2-  O2  1  0.37920000  0.39645000  0.47530000  1.0
  O2-  O2  1  0.37920000  0.89645000  0.47530000  1.0
  O2-  O2  1  0.18240000  0.35355000  0.58630000  1.0
  O2-  O2  1  0.18240000  0.85355000  0.58630000  1.0
  O2-  O2  1  0.31760000  0.20195000  0.02470000  1.0
  O2-  O2  1  0.31760000  0.70195000  0.02470000  1.0
  O2-  O2  1  0.12080000  0.04805000  0.91370000  1.0
  O2-  O2  1  0.12080000  0.54805000  0.91370000  1.0
  O2-  O2  1  0.58630000  0.34120000  0.20710000  1.0
  O2-  O2  1  0.58630000  0.84120000  0.20710000  1.0
  O2-  O2  1  0.47530000  0.43960000  0.29290000  1.0
  O2-  O2  1  0.47530000  0.93960000  0.29290000  1.0
  O2-  O2  1  0.91370000  0.31040000  0.59610000  1.0
  O2-  O2  1  0.91370000  0.81040000  0.59610000  1.0
  O2-  O2  1  0.02470000  0.40880000  0.90390000  1.0
  O2-  O2  1  0.02470000  0.90880000  0.90390000  1.0
  O2-  O2  1  0.09610000  0.23765000  0.68240000  1.0
  O2-  O2  1  0.09610000  0.73765000  0.68240000  1.0
  O2-  O2  1  0.40390000  0.29315000  0.87920000  1.0
  O2-  O2  1  0.40390000  0.79315000  0.87920000  1.0
  O2-  O2  1  0.70710000  0.01235000  0.62080000  1.0
  O2-  O2  1  0.70710000  0.51235000  0.62080000  1.0
  O2-  O2  1  0.79290000  0.45685000  0.81760000  1.0
  O2-  O2  1  0.79290000  0.95685000  0.81760000  1.0
  O2-  O2  1  0.62080000  0.10355000  0.52470000  1.0
  O2-  O2  1  0.62080000  0.60355000  0.52470000  1.0
  O2-  O2  1  0.81760000  0.14645000  0.41370000  1.0
  O2-  O2  1  0.81760000  0.64645000  0.41370000  1.0
  O2-  O2  1  0.68240000  0.29805000  0.97530000  1.0
  O2-  O2  1  0.68240000  0.79805000  0.97530000  1.0
  O2-  O2  1  0.87920000  0.45195000  0.08630000  1.0
  O2-  O2  1  0.87920000  0.95195000  0.08630000  1.0
  O2-  O2  1  0.41370000  0.15880000  0.79290000  1.0
  O2-  O2  1  0.41370000  0.65880000  0.79290000  1.0
  O2-  O2  1  0.52470000  0.06040000  0.70710000  1.0
  O2-  O2  1  0.52470000  0.56040000  0.70710000  1.0
  O2-  O2  1  0.08630000  0.18960000  0.40390000  1.0
  O2-  O2  1  0.08630000  0.68960000  0.40390000  1.0
  O2-  O2  1  0.97530000  0.09120000  0.09610000  1.0
  O2-  O2  1  0.97530000  0.59120000  0.09610000  1.0
  O2-  O2  1  0.08630000  0.10355000  0.68240000  1.0
  O2-  O2  1  0.08630000  0.60355000  0.68240000  1.0
  O2-  O2  1  0.97530000  0.14645000  0.87920000  1.0
  O2-  O2  1  0.97530000  0.64645000  0.87920000  1.0
  O2-  O2  1  0.41370000  0.29805000  0.62080000  1.0
  O2-  O2  1  0.41370000  0.79805000  0.62080000  1.0
  O2-  O2  1  0.52470000  0.45195000  0.81760000  1.0
  O2-  O2  1  0.52470000  0.95195000  0.81760000  1.0
  O2-  O2  1  0.40390000  0.15880000  0.52470000  1.0
  O2-  O2  1  0.40390000  0.65880000  0.52470000  1.0
  O2-  O2  1  0.09610000  0.06040000  0.41370000  1.0
  O2-  O2  1  0.09610000  0.56040000  0.41370000  1.0
  O2-  O2  1  0.79290000  0.18960000  0.97530000  1.0
  O2-  O2  1  0.79290000  0.68960000  0.97530000  1.0
  O2-  O2  1  0.70710000  0.09120000  0.08630000  1.0
  O2-  O2  1  0.70710000  0.59120000  0.08630000  1.0
  O2-  O2  1  0.87920000  0.23765000  0.79290000  1.0
  O2-  O2  1  0.87920000  0.73765000  0.79290000  1.0
  O2-  O2  1  0.68240000  0.29315000  0.70710000  1.0
  O2-  O2  1  0.68240000  0.79315000  0.70710000  1.0
  O2-  O2  1  0.81760000  0.01235000  0.40390000  1.0
  O2-  O2  1  0.81760000  0.51235000  0.40390000  1.0
  O2-  O2  1  0.62080000  0.45685000  0.09610000  1.0
  O2-  O2  1  0.62080000  0.95685000  0.09610000  1.0
  O2-  O2  1  0.91370000  0.39645000  0.31760000  1.0
  O2-  O2  1  0.91370000  0.89645000  0.31760000  1.0
  O2-  O2  1  0.02470000  0.35355000  0.12080000  1.0
  O2-  O2  1  0.02470000  0.85355000  0.12080000  1.0
  O2-  O2  1  0.58630000  0.20195000  0.37920000  1.0
  O2-  O2  1  0.58630000  0.70195000  0.37920000  1.0
  O2-  O2  1  0.47530000  0.04805000  0.18240000  1.0
  O2-  O2  1  0.47530000  0.54805000  0.18240000  1.0
  O2-  O2  1  0.59610000  0.34120000  0.47530000  1.0
  O2-  O2  1  0.59610000  0.84120000  0.47530000  1.0
  O2-  O2  1  0.90390000  0.43960000  0.58630000  1.0
  O2-  O2  1  0.90390000  0.93960000  0.58630000  1.0
  O2-  O2  1  0.20710000  0.31040000  0.02470000  1.0
  O2-  O2  1  0.20710000  0.81040000  0.02470000  1.0
  O2-  O2  1  0.29290000  0.40880000  0.91370000  1.0
  O2-  O2  1  0.29290000  0.90880000  0.91370000  1.0
  O2-  O2  1  0.12080000  0.26235000  0.20710000  1.0
  O2-  O2  1  0.12080000  0.76235000  0.20710000  1.0
  O2-  O2  1  0.31760000  0.20685000  0.29290000  1.0
  O2-  O2  1  0.31760000  0.70685000  0.29290000  1.0
  O2-  O2  1  0.18240000  0.48765000  0.59610000  1.0
  O2-  O2  1  0.18240000  0.98765000  0.59610000  1.0
  O2-  O2  1  0.37920000  0.04315000  0.90390000  1.0
  O2-  O2  1  0.37920000  0.54315000  0.90390000  1.0
