# generated using pymatgen
data_Li32Si2P3(S5I)5
_symmetry_space_group_name_H-M   'P 1'
_cell_length_a   7.20961124
_cell_length_b   14.41922249
_cell_length_c   36.04805622
_cell_angle_alpha   60.00000000
_cell_angle_beta   120.00000000
_cell_angle_gamma   120.00000000
_symmetry_Int_Tables_number   1
_chemical_formula_structural   Li32Si2P3(S5I)5
_chemical_formula_sum   'Li64 Si4 P6 S50 I10'
_cell_volume   2649.84544549
_cell_formula_units_Z   2
loop_
 _symmetry_equiv_pos_site_id
 _symmetry_equiv_pos_as_xyz
  1  'x, y, z'
loop_
 _atom_type_symbol
 _atom_type_oxidation_number
  Li+  1.0
  Si4+  4.0
  P5+  5.0
  S2-  -2.0
  I-  -1.0
loop_
 _atom_site_type_symbol
 _atom_site_label
 _atom_site_symmetry_multiplicity
 _atom_site_fract_x
 _atom_site_fract_y
 _atom_site_fract_z
 _atom_site_occupancy
  Li+  Li0  1  0.39921000  0.20199500  0.74952200  1.0
  Li+  Li1  1  0.39921000  0.20199500  0.54952200  1.0
  Li+  Li2  1  0.39921000  0.70199500  0.34952200  1.0
  Li+  Li3  1  0.39921000  0.20199500  0.14952200  1.0
  Li+  Li4  1  0.00239000  0.80039500  0.63079800  1.0
  Li+  Li5  1  0.99878479  0.30293902  0.63291363  1.0
  Li+  Li6  1  0.00239000  0.80039500  0.43079800  1.0
  Li+  Li7  1  0.00239000  0.30039500  0.43079800  1.0
  Li+  Li8  1  0.00323066  0.80073336  0.22821708  1.0
  Li+  Li9  1  0.00239000  0.30039500  0.03079800  1.0
  Li+  Li10  1  0.00239000  0.80039500  0.83079800  1.0
  Li+  Li11  1  0.59601000  0.99880500  0.74952200  1.0
  Li+  Li12  1  0.59601000  0.99880500  0.54952200  1.0
  Li+  Li13  1  0.59601000  0.49880500  0.34952200  1.0
  Li+  Li14  1  0.59601000  0.49880500  0.94952200  1.0
  Li+  Li15  1  0.59601000  0.80039500  0.54952200  1.0
  Li+  Li16  1  0.59601000  0.30039500  0.34952200  1.0
  Li+  Li17  1  0.59601000  0.80039500  0.94952200  1.0
  Li+  Li18  1  0.00239000  0.70199500  0.74952200  1.0
  Li+  Li19  1  0.00214031  0.70063355  0.95046856  1.0
  Li+  Li20  1  0.00239000  0.30039500  0.54952200  1.0
  Li+  Li21  1  0.00092865  0.30124929  0.34806066  1.0
  Li+  Li22  1  0.00239000  0.80039500  0.94952200  1.0
  Li+  Li23  1  0.00239000  0.70199500  0.47015800  1.0
  Li+  Li24  1  0.00309871  0.20151968  0.47210925  1.0
  Li+  Li25  1  0.00361709  0.70353519  0.27017918  1.0
  Li+  Li26  1  0.00239000  0.20199500  0.07015800  1.0
  Li+  Li27  1  0.00239000  0.99880500  0.47015800  1.0
  Li+  Li28  1  0.00239000  0.49880500  0.47015800  1.0
  Li+  Li29  1  0.00206306  0.49650086  0.07119501  1.0
  Li+  Li30  1  0.00239000  0.99880500  0.87015800  1.0
  Li+  Li31  1  0.39921000  0.49880500  0.74952200  1.0
  Li+  Li32  1  0.39921000  0.49880500  0.34952200  1.0
  Li+  Li33  1  0.39921000  0.99880500  0.94952200  1.0
  Li+  Li34  1  0.00239000  0.49880500  0.03079800  1.0
  Li+  Li35  1  0.00239000  0.99880500  0.83079800  1.0
  Li+  Li36  1  0.59601000  0.49880500  0.47015800  1.0
  Li+  Li37  1  0.39921000  0.99880500  0.63079800  1.0
  Li+  Li38  1  0.39921000  0.49880500  0.23079800  1.0
  Li+  Li39  1  0.39921000  0.99880500  0.03079800  1.0
  Li+  Li40  1  0.39921000  0.99880500  0.83079800  1.0
  Li+  Li41  1  0.48190000  0.75905000  0.74638000  1.0
  Li+  Li42  1  0.48190000  0.75905000  0.34638000  1.0
  Li+  Li43  1  0.48232380  0.25928783  0.34696452  1.0
  Li+  Li44  1  0.48190000  0.75905000  0.14638000  1.0
  Li+  Li45  1  0.48190000  0.25905000  0.14638000  1.0
  Li+  Li46  1  0.48268563  0.25646508  0.94839270  1.0
  Li+  Li47  1  0.01810000  0.75905000  0.45362000  1.0
  Li+  Li48  1  0.01810000  0.75905000  0.25362000  1.0
  Li+  Li49  1  0.01798572  0.76165414  0.05202832  1.0
  Li+  Li50  1  0.01810000  0.25905000  0.85362000  1.0
  Li+  Li51  1  0.48190000  0.49095000  0.54638000  1.0
  Li+  Li52  1  0.48190000  0.99095000  0.34638000  1.0
  Li+  Li53  1  0.01886856  0.76206524  0.74598360  1.0
  Li+  Li54  1  0.01810000  0.25905000  0.74638000  1.0
  Li+  Li55  1  0.01810000  0.25905000  0.34638000  1.0
  Li+  Li56  1  0.01810000  0.25905000  0.14638000  1.0
  Li+  Li57  1  0.01975640  0.99289242  0.25458845  1.0
  Li+  Li58  1  0.01810000  0.49095000  0.85362000  1.0
  Li+  Li59  1  0.47959675  0.99200504  0.65194067  1.0
  Li+  Li60  1  0.47824852  0.49231893  0.65457633  1.0
  Li+  Li61  1  0.48177175  0.99238397  0.25501491  1.0
  Li+  Li62  1  0.48190000  0.49095000  0.05362000  1.0
  Li+  Li63  1  0.48091567  0.49249345  0.85642994  1.0
  Si4+  Si64  1  0.50000000  0.75000000  0.65000000  1.0
  Si4+  Si65  1  0.50000000  0.25000000  0.65000000  1.0
  Si4+  Si66  1  0.49950802  0.74663537  0.44766698  1.0
  Si4+  Si67  1  0.50000000  0.75000000  0.05000000  1.0
  P5+  P68  1  0.50000000  0.25000000  0.45000000  1.0
  P5+  P69  1  0.50000000  0.75000000  0.25000000  1.0
  P5+  P70  1  0.50611316  0.24870847  0.25058056  1.0
  P5+  P71  1  0.50000000  0.25000000  0.05000000  1.0
  P5+  P72  1  0.50000000  0.75000000  0.85000000  1.0
  P5+  P73  1  0.50000000  0.25000000  0.85000000  1.0
  S2-  S74  1  0.25000000  0.87500000  0.70000000  1.0
  S2-  S75  1  0.25000000  0.37500000  0.70000000  1.0
  S2-  S76  1  0.25000000  0.87500000  0.50000000  1.0
  S2-  S77  1  0.25177488  0.37641509  0.49489198  1.0
  S2-  S78  1  0.25000000  0.87500000  0.30000000  1.0
  S2-  S79  1  0.25000000  0.37500000  0.30000000  1.0
  S2-  S80  1  0.25000000  0.87500000  0.10000000  1.0
  S2-  S81  1  0.25312347  0.37120549  0.09820944  1.0
  S2-  S82  1  0.24808171  0.87677370  0.89760451  1.0
  S2-  S83  1  0.25000000  0.37500000  0.90000000  1.0
  S2-  S84  1  0.61710000  0.69145000  0.72026000  1.0
  S2-  S85  1  0.61710000  0.19145000  0.72026000  1.0
  S2-  S86  1  0.61710000  0.69145000  0.52026000  1.0
  S2-  S87  1  0.61710000  0.19145000  0.52026000  1.0
  S2-  S88  1  0.61672082  0.68839582  0.31580112  1.0
  S2-  S89  1  0.61710000  0.19145000  0.32026000  1.0
  S2-  S90  1  0.61733284  0.69028548  0.12494067  1.0
  S2-  S91  1  0.61710000  0.19145000  0.12026000  1.0
  S2-  S92  1  0.61710000  0.69145000  0.92026000  1.0
  S2-  S93  1  0.61445120  0.19537914  0.91915374  1.0
  S2-  S94  1  0.61710000  0.69145000  0.62658000  1.0
  S2-  S95  1  0.61710000  0.19145000  0.62658000  1.0
  S2-  S96  1  0.61710000  0.69145000  0.42658000  1.0
  S2-  S97  1  0.61710000  0.19145000  0.42658000  1.0
  S2-  S98  1  0.61710000  0.69145000  0.22658000  1.0
  S2-  S99  1  0.61710000  0.19145000  0.22658000  1.0
  S2-  S100  1  0.61710000  0.69145000  0.02658000  1.0
  S2-  S101  1  0.61710000  0.19145000  0.02658000  1.0
  S2-  S102  1  0.61975277  0.69325383  0.82074161  1.0
  S2-  S103  1  0.61710000  0.19145000  0.82658000  1.0
  S2-  S104  1  0.61455900  0.92267747  0.62567199  1.0
  S2-  S105  1  0.61710000  0.42565000  0.62658000  1.0
  S2-  S106  1  0.61710000  0.92565000  0.42658000  1.0
  S2-  S107  1  0.61710000  0.42565000  0.42658000  1.0
  S2-  S108  1  0.61640331  0.92356819  0.22826618  1.0
  S2-  S109  1  0.61358705  0.42187763  0.22422118  1.0
  S2-  S110  1  0.61710000  0.92565000  0.02658000  1.0
  S2-  S111  1  0.61710000  0.42565000  0.02658000  1.0
  S2-  S112  1  0.61710000  0.92565000  0.82658000  1.0
  S2-  S113  1  0.61485074  0.42551230  0.82640155  1.0
  S2-  S114  1  0.14870000  0.69145000  0.62658000  1.0
  S2-  S115  1  0.14870000  0.19145000  0.62658000  1.0
  S2-  S116  1  0.14870000  0.69145000  0.42658000  1.0
  S2-  S117  1  0.14870000  0.19145000  0.42658000  1.0
  S2-  S118  1  0.14870000  0.69145000  0.22658000  1.0
  S2-  S119  1  0.14870000  0.19145000  0.22658000  1.0
  S2-  S120  1  0.14870000  0.69145000  0.02658000  1.0
  S2-  S121  1  0.14870000  0.19145000  0.02658000  1.0
  S2-  S122  1  0.14870000  0.69145000  0.82658000  1.0
  S2-  S123  1  0.14870000  0.19145000  0.82658000  1.0
  I-  I124  1  0.99836412  0.99825975  0.74963719  1.0
  I-  I125  1  0.00000000  0.50000000  0.75000000  1.0
  I-  I126  1  0.00000000  0.00000000  0.55000000  1.0
  I-  I127  1  0.00073526  0.49984937  0.55094767  1.0
  I-  I128  1  0.99755981  0.00049402  0.34897705  1.0
  I-  I129  1  0.00306380  0.50149456  0.35043236  1.0
  I-  I130  1  0.00000000  0.00000000  0.15000000  1.0
  I-  I131  1  0.00000000  0.50000000  0.15000000  1.0
  I-  I132  1  0.00000000  0.00000000  0.95000000  1.0
  I-  I133  1  0.00000000  0.50000000  0.95000000  1.0
