# generated using pymatgen
data_Li32Si2P3(S5I)5
_symmetry_space_group_name_H-M   'P 1'
_cell_length_a   35.83003706
_cell_length_b   7.16600741
_cell_length_c   14.33201483
_cell_angle_alpha   120.00000000
_cell_angle_beta   120.00000000
_cell_angle_gamma   60.00000000
_symmetry_Int_Tables_number   1
_chemical_formula_structural   Li32Si2P3(S5I)5
_chemical_formula_sum   'Li64 Si4 P6 S50 I10'
_cell_volume   2602.05673310
_cell_formula_units_Z   2
loop_
 _symmetry_equiv_pos_site_id
 _symmetry_equiv_pos_as_xyz
  1  'x, y, z'
loop_
 _atom_type_symbol
 _atom_type_oxidation_number
  Li+  1.0
  Si4+  4.0
  P5+  5.0
  S2-  -2.0
  I-  -1.0
loop_
 _atom_site_type_symbol
 _atom_site_label
 _atom_site_symmetry_multiplicity
 _atom_site_fract_x
 _atom_site_fract_y
 _atom_site_fract_z
 _atom_site_occupancy
  Li+  Li0  1  0.99952200  0.26745667  0.79800500  1.0
  Li+  Li1  1  0.79952200  0.26745667  0.79800500  1.0
  Li+  Li2  1  0.59952200  0.26745667  0.29800500  1.0
  Li+  Li3  1  0.39952200  0.26745667  0.79800500  1.0
  Li+  Li4  1  0.88079800  0.66427667  0.19960500  1.0
  Li+  Li5  1  0.88079800  0.66427667  0.69960500  1.0
  Li+  Li6  1  0.68079800  0.66427667  0.19960500  1.0
  Li+  Li7  1  0.68079800  0.66427667  0.69960500  1.0
  Li+  Li8  1  0.48079800  0.66427667  0.19960500  1.0
  Li+  Li9  1  0.28079800  0.66427667  0.69960500  1.0
  Li+  Li10  1  0.08079800  0.66427667  0.19960500  1.0
  Li+  Li11  1  0.99952200  0.07065667  0.00119500  1.0
  Li+  Li12  1  0.79952200  0.07065667  0.00119500  1.0
  Li+  Li13  1  0.59952200  0.07065667  0.50119500  1.0
  Li+  Li14  1  0.19952200  0.07065667  0.50119500  1.0
  Li+  Li15  1  0.79952200  0.07065667  0.19960500  1.0
  Li+  Li16  1  0.59952200  0.07065667  0.69960500  1.0
  Li+  Li17  1  0.19952200  0.07065667  0.19960500  1.0
  Li+  Li18  1  0.99952200  0.66427667  0.29800500  1.0
  Li+  Li19  1  0.19952200  0.66427667  0.29800500  1.0
  Li+  Li20  1  0.79952200  0.66427667  0.69960500  1.0
  Li+  Li21  1  0.59952200  0.66427667  0.69960500  1.0
  Li+  Li22  1  0.19952200  0.66427667  0.19960500  1.0
  Li+  Li23  1  0.72015800  0.66427667  0.29800500  1.0
  Li+  Li24  1  0.72015800  0.66427667  0.79800500  1.0
  Li+  Li25  1  0.52015800  0.66427667  0.29800500  1.0
  Li+  Li26  1  0.32015800  0.66427667  0.79800500  1.0
  Li+  Li27  1  0.72015800  0.66427667  0.00119500  1.0
  Li+  Li28  1  0.72015800  0.66427667  0.50119500  1.0
  Li+  Li29  1  0.32015800  0.66427667  0.50119500  1.0
  Li+  Li30  1  0.12015800  0.66427667  0.00119500  1.0
  Li+  Li31  1  0.99952200  0.26745667  0.50119500  1.0
  Li+  Li32  1  0.59952200  0.26745667  0.50119500  1.0
  Li+  Li33  1  0.19952200  0.26745667  0.00119500  1.0
  Li+  Li34  1  0.28079800  0.66427667  0.50119500  1.0
  Li+  Li35  1  0.08079800  0.66427667  0.00119500  1.0
  Li+  Li36  1  0.72015800  0.07065667  0.50119500  1.0
  Li+  Li37  1  0.88079800  0.26745667  0.00119500  1.0
  Li+  Li38  1  0.48079800  0.26745667  0.50119500  1.0
  Li+  Li39  1  0.28079800  0.26745667  0.00119500  1.0
  Li+  Li40  1  0.08079800  0.26745667  0.00119500  1.0
  Li+  Li41  1  0.99638000  0.18476667  0.24095000  1.0
  Li+  Li42  1  0.59638000  0.18476667  0.24095000  1.0
  Li+  Li43  1  0.59638000  0.18476667  0.74095000  1.0
  Li+  Li44  1  0.39638000  0.18476667  0.24095000  1.0
  Li+  Li45  1  0.39638000  0.18476667  0.74095000  1.0
  Li+  Li46  1  0.19638000  0.18476667  0.74095000  1.0
  Li+  Li47  1  0.70362000  0.64856667  0.24095000  1.0
  Li+  Li48  1  0.50362000  0.64856667  0.24095000  1.0
  Li+  Li49  1  0.30362000  0.64856667  0.24095000  1.0
  Li+  Li50  1  0.10362000  0.64856667  0.74095000  1.0
  Li+  Li51  1  0.79638000  0.18476667  0.50905000  1.0
  Li+  Li52  1  0.59638000  0.18476667  0.00905000  1.0
  Li+  Li53  1  0.99638000  0.64856667  0.24095000  1.0
  Li+  Li54  1  0.99638000  0.64856667  0.74095000  1.0
  Li+  Li55  1  0.59638000  0.64856667  0.74095000  1.0
  Li+  Li56  1  0.39638000  0.64856667  0.74095000  1.0
  Li+  Li57  1  0.50362000  0.64856667  0.00905000  1.0
  Li+  Li58  1  0.10362000  0.64856667  0.50905000  1.0
  Li+  Li59  1  0.90362000  0.18476667  0.00905000  1.0
  Li+  Li60  1  0.90362000  0.18476667  0.50905000  1.0
  Li+  Li61  1  0.50362000  0.18476667  0.00905000  1.0
  Li+  Li62  1  0.30362000  0.18476667  0.50905000  1.0
  Li+  Li63  1  0.10362000  0.18476667  0.50905000  1.0
  Si4+  Si64  1  0.90000000  0.16666667  0.25000000  1.0
  Si4+  Si65  1  0.90000000  0.16666667  0.75000000  1.0
  Si4+  Si66  1  0.70000000  0.16666667  0.25000000  1.0
  Si4+  Si67  1  0.30000000  0.16666667  0.25000000  1.0
  P5+  P68  1  0.70000000  0.16666667  0.75000000  1.0
  P5+  P69  1  0.50000000  0.16666667  0.25000000  1.0
  P5+  P70  1  0.50000000  0.16666667  0.75000000  1.0
  P5+  P71  1  0.30000000  0.16666667  0.75000000  1.0
  P5+  P72  1  0.10000000  0.16666667  0.25000000  1.0
  P5+  P73  1  0.10000000  0.16666667  0.75000000  1.0
  S2-  S74  1  0.95000000  0.41666667  0.12500000  1.0
  S2-  S75  1  0.95000000  0.41666667  0.62500000  1.0
  S2-  S76  1  0.75000000  0.41666667  0.12500000  1.0
  S2-  S77  1  0.75000000  0.41666667  0.62500000  1.0
  S2-  S78  1  0.55000000  0.41666667  0.12500000  1.0
  S2-  S79  1  0.55000000  0.41666667  0.62500000  1.0
  S2-  S80  1  0.35000000  0.41666667  0.12500000  1.0
  S2-  S81  1  0.35000000  0.41666667  0.62500000  1.0
  S2-  S82  1  0.15000000  0.41666667  0.12500000  1.0
  S2-  S83  1  0.15000000  0.41666667  0.62500000  1.0
  S2-  S84  1  0.97026000  0.04956667  0.30855000  1.0
  S2-  S85  1  0.97026000  0.04956667  0.80855000  1.0
  S2-  S86  1  0.77026000  0.04956667  0.30855000  1.0
  S2-  S87  1  0.77026000  0.04956667  0.80855000  1.0
  S2-  S88  1  0.57026000  0.04956667  0.30855000  1.0
  S2-  S89  1  0.57026000  0.04956667  0.80855000  1.0
  S2-  S90  1  0.37026000  0.04956667  0.30855000  1.0
  S2-  S91  1  0.37026000  0.04956667  0.80855000  1.0
  S2-  S92  1  0.17026000  0.04956667  0.30855000  1.0
  S2-  S93  1  0.17026000  0.04956667  0.80855000  1.0
  S2-  S94  1  0.87658000  0.04956667  0.30855000  1.0
  S2-  S95  1  0.87658000  0.04956667  0.80855000  1.0
  S2-  S96  1  0.67658000  0.04956667  0.30855000  1.0
  S2-  S97  1  0.67658000  0.04956667  0.80855000  1.0
  S2-  S98  1  0.47658000  0.04956667  0.30855000  1.0
  S2-  S99  1  0.47658000  0.04956667  0.80855000  1.0
  S2-  S100  1  0.27658000  0.04956667  0.30855000  1.0
  S2-  S101  1  0.27658000  0.04956667  0.80855000  1.0
  S2-  S102  1  0.07658000  0.04956667  0.30855000  1.0
  S2-  S103  1  0.07658000  0.04956667  0.80855000  1.0
  S2-  S104  1  0.87658000  0.04956667  0.07435000  1.0
  S2-  S105  1  0.87658000  0.04956667  0.57435000  1.0
  S2-  S106  1  0.67658000  0.04956667  0.07435000  1.0
  S2-  S107  1  0.67658000  0.04956667  0.57435000  1.0
  S2-  S108  1  0.47658000  0.04956667  0.07435000  1.0
  S2-  S109  1  0.47658000  0.04956667  0.57435000  1.0
  S2-  S110  1  0.27658000  0.04956667  0.07435000  1.0
  S2-  S111  1  0.27658000  0.04956667  0.57435000  1.0
  S2-  S112  1  0.07658000  0.04956667  0.07435000  1.0
  S2-  S113  1  0.07658000  0.04956667  0.57435000  1.0
  S2-  S114  1  0.87658000  0.51796667  0.30855000  1.0
  S2-  S115  1  0.87658000  0.51796667  0.80855000  1.0
  S2-  S116  1  0.67658000  0.51796667  0.30855000  1.0
  S2-  S117  1  0.67658000  0.51796667  0.80855000  1.0
  S2-  S118  1  0.47658000  0.51796667  0.30855000  1.0
  S2-  S119  1  0.47658000  0.51796667  0.80855000  1.0
  S2-  S120  1  0.27658000  0.51796667  0.30855000  1.0
  S2-  S121  1  0.27658000  0.51796667  0.80855000  1.0
  S2-  S122  1  0.07658000  0.51796667  0.30855000  1.0
  S2-  S123  1  0.07658000  0.51796667  0.80855000  1.0
  I-  I124  1  0.00000000  0.66666667  0.00000000  1.0
  I-  I125  1  0.00000000  0.66666667  0.50000000  1.0
  I-  I126  1  0.80000000  0.66666667  0.00000000  1.0
  I-  I127  1  0.80000000  0.66666667  0.50000000  1.0
  I-  I128  1  0.60000000  0.66666667  0.00000000  1.0
  I-  I129  1  0.60000000  0.66666667  0.50000000  1.0
  I-  I130  1  0.40000000  0.66666667  0.00000000  1.0
  I-  I131  1  0.40000000  0.66666667  0.50000000  1.0
  I-  I132  1  0.20000000  0.66666667  0.00000000  1.0
  I-  I133  1  0.20000000  0.66666667  0.50000000  1.0
