# generated using pymatgen
data_SrLi9La10Ti20O60
_symmetry_space_group_name_H-M   'P 1'
_cell_length_a   19.38150000
_cell_length_b   7.75260000
_cell_length_c   7.75260000
_cell_angle_alpha   90.00000000
_cell_angle_beta   90.00000000
_cell_angle_gamma   90.00000000
_symmetry_Int_Tables_number   1
_chemical_formula_structural   SrLi9La10Ti20O60
_chemical_formula_sum   'Sr1 Li9 La10 Ti20 O60'
_cell_volume   1164.88254922
_cell_formula_units_Z   1
loop_
 _symmetry_equiv_pos_site_id
 _symmetry_equiv_pos_as_xyz
  1  'x, y, z'
loop_
 _atom_type_symbol
 _atom_type_oxidation_number
  Sr2+  2.0
  Li+  1.0
  La3+  3.0
  Ti4+  4.0
  O2-  -2.0
loop_
 _atom_site_type_symbol
 _atom_site_label
 _atom_site_symmetry_multiplicity
 _atom_site_fract_x
 _atom_site_fract_y
 _atom_site_fract_z
 _atom_site_occupancy
  Sr2+  Sr0  1  0.40000000  0.50000000  0.75000000  1.0
  Li+  Li1  1  0.00000000  0.00000000  0.75000000  1.0
  Li+  Li2  1  0.00000000  0.50000000  0.25000000  1.0
  Li+  Li3  1  0.20000000  0.50000000  0.75000000  1.0
  Li+  Li4  1  0.20000000  0.00000000  0.25000000  1.0
  Li+  Li5  1  0.40067886  0.99420895  0.74768788  1.0
  Li+  Li6  1  0.60000000  0.00000000  0.75000000  1.0
  Li+  Li7  1  0.60000000  0.50000000  0.25000000  1.0
  Li+  Li8  1  0.80000000  0.00000000  0.75000000  1.0
  Li+  Li9  1  0.80000000  0.00000000  0.25000000  1.0
  La3+  La10  1  0.00291634  0.50305919  0.74900968  1.0
  La3+  La11  1  0.00000000  0.00000000  0.25000000  1.0
  La3+  La12  1  0.19952688  0.00374137  0.74688026  1.0
  La3+  La13  1  0.20000000  0.50000000  0.25000000  1.0
  La3+  La14  1  0.40000000  0.00000000  0.25000000  1.0
  La3+  La15  1  0.39826577  0.50124442  0.24694606  1.0
  La3+  La16  1  0.60000000  0.50000000  0.75000000  1.0
  La3+  La17  1  0.60000000  0.00000000  0.25000000  1.0
  La3+  La18  1  0.80485826  0.50051316  0.75585760  1.0
  La3+  La19  1  0.80000000  0.50000000  0.25000000  1.0
  Ti4+  Ti20  1  0.10000000  0.75000000  0.50000000  1.0
  Ti4+  Ti21  1  0.10027116  0.25022691  0.50220419  1.0
  Ti4+  Ti22  1  0.10000000  0.75000000  0.00000000  1.0
  Ti4+  Ti23  1  0.10000000  0.25000000  0.00000000  1.0
  Ti4+  Ti24  1  0.30000000  0.75000000  0.50000000  1.0
  Ti4+  Ti25  1  0.30000000  0.25000000  0.50000000  1.0
  Ti4+  Ti26  1  0.30000000  0.75000000  0.00000000  1.0
  Ti4+  Ti27  1  0.30000000  0.25000000  0.00000000  1.0
  Ti4+  Ti28  1  0.50000000  0.75000000  0.50000000  1.0
  Ti4+  Ti29  1  0.50000000  0.25000000  0.50000000  1.0
  Ti4+  Ti30  1  0.50000000  0.75000000  0.00000000  1.0
  Ti4+  Ti31  1  0.50000000  0.25000000  0.00000000  1.0
  Ti4+  Ti32  1  0.70000000  0.75000000  0.50000000  1.0
  Ti4+  Ti33  1  0.70000000  0.25000000  0.50000000  1.0
  Ti4+  Ti34  1  0.70000000  0.75000000  0.00000000  1.0
  Ti4+  Ti35  1  0.70000000  0.25000000  0.00000000  1.0
  Ti4+  Ti36  1  0.90000000  0.75000000  0.50000000  1.0
  Ti4+  Ti37  1  0.89899661  0.24664740  0.49893243  1.0
  Ti4+  Ti38  1  0.90000000  0.75000000  0.00000000  1.0
  Ti4+  Ti39  1  0.90000000  0.25000000  0.00000000  1.0
  O2-  O40  1  0.00000000  0.75000000  0.50000000  1.0
  O2-  O41  1  0.00093494  0.25048249  0.50058212  1.0
  O2-  O42  1  0.00000000  0.75000000  0.00000000  1.0
  O2-  O43  1  0.99947092  0.25576968  0.99962447  1.0
  O2-  O44  1  0.20000000  0.75000000  0.50000000  1.0
  O2-  O45  1  0.20000000  0.25000000  0.50000000  1.0
  O2-  O46  1  0.20000000  0.75000000  0.00000000  1.0
  O2-  O47  1  0.20000000  0.25000000  0.00000000  1.0
  O2-  O48  1  0.40000000  0.75000000  0.50000000  1.0
  O2-  O49  1  0.40000000  0.25000000  0.50000000  1.0
  O2-  O50  1  0.39539397  0.75088268  0.00095743  1.0
  O2-  O51  1  0.40000000  0.25000000  0.00000000  1.0
  O2-  O52  1  0.59818423  0.75441329  0.50174925  1.0
  O2-  O53  1  0.60000000  0.25000000  0.50000000  1.0
  O2-  O54  1  0.60000000  0.75000000  0.00000000  1.0
  O2-  O55  1  0.59646679  0.24594271  0.99824027  1.0
  O2-  O56  1  0.80000000  0.75000000  0.50000000  1.0
  O2-  O57  1  0.79350221  0.24680714  0.50314794  1.0
  O2-  O58  1  0.80000000  0.75000000  0.00000000  1.0
  O2-  O59  1  0.80000000  0.25000000  0.00000000  1.0
  O2-  O60  1  0.10000000  0.00000000  0.50000000  1.0
  O2-  O61  1  0.10000000  0.50000000  0.50000000  1.0
  O2-  O62  1  0.09409263  0.99909476  0.00221459  1.0
  O2-  O63  1  0.10000000  0.50000000  0.00000000  1.0
  O2-  O64  1  0.30000000  0.00000000  0.50000000  1.0
  O2-  O65  1  0.29612084  0.50129311  0.50038799  1.0
  O2-  O66  1  0.30000000  0.00000000  0.00000000  1.0
  O2-  O67  1  0.30451289  0.49908875  0.99881246  1.0
  O2-  O68  1  0.50000000  0.00000000  0.50000000  1.0
  O2-  O69  1  0.50000000  0.50000000  0.50000000  1.0
  O2-  O70  1  0.49987931  0.99897643  0.99374730  1.0
  O2-  O71  1  0.50000000  0.50000000  0.00000000  1.0
  O2-  O72  1  0.70000000  0.00000000  0.50000000  1.0
  O2-  O73  1  0.70535750  0.50468014  0.50114430  1.0
  O2-  O74  1  0.70000000  0.00000000  0.00000000  1.0
  O2-  O75  1  0.70000000  0.50000000  0.00000000  1.0
  O2-  O76  1  0.90000000  0.00000000  0.50000000  1.0
  O2-  O77  1  0.90000000  0.50000000  0.50000000  1.0
  O2-  O78  1  0.90219268  0.00166177  0.00100364  1.0
  O2-  O79  1  0.90000000  0.50000000  0.00000000  1.0
  O2-  O80  1  0.10000000  0.75000000  0.75000000  1.0
  O2-  O81  1  0.10000000  0.25000000  0.75000000  1.0
  O2-  O82  1  0.10000000  0.75000000  0.25000000  1.0
  O2-  O83  1  0.09951113  0.24819700  0.25188429  1.0
  O2-  O84  1  0.30000000  0.75000000  0.75000000  1.0
  O2-  O85  1  0.29913677  0.25231599  0.75211324  1.0
  O2-  O86  1  0.30089726  0.74408720  0.25044033  1.0
  O2-  O87  1  0.30000000  0.25000000  0.25000000  1.0
  O2-  O88  1  0.50000000  0.75000000  0.75000000  1.0
  O2-  O89  1  0.50000000  0.25000000  0.75000000  1.0
  O2-  O90  1  0.50000000  0.75000000  0.25000000  1.0
  O2-  O91  1  0.49906336  0.24840839  0.25119643  1.0
  O2-  O92  1  0.69718464  0.74701166  0.75017441  1.0
  O2-  O93  1  0.70000000  0.25000000  0.75000000  1.0
  O2-  O94  1  0.70000000  0.75000000  0.25000000  1.0
  O2-  O95  1  0.70000000  0.25000000  0.25000000  1.0
  O2-  O96  1  0.89884824  0.75183379  0.74679460  1.0
  O2-  O97  1  0.90000000  0.25000000  0.75000000  1.0
  O2-  O98  1  0.90000000  0.75000000  0.25000000  1.0
  O2-  O99  1  0.90000000  0.25000000  0.25000000  1.0
