# generated using pymatgen
data_Li24P4S20IBr3
_symmetry_space_group_name_H-M   'P 1'
_cell_length_a   14.18965320
_cell_length_b   14.18965320
_cell_length_c   21.28447980
_cell_angle_alpha   60.00000000
_cell_angle_beta   120.00000000
_cell_angle_gamma   120.00000000
_symmetry_Int_Tables_number   1
_chemical_formula_structural   Li24P4S20IBr3
_chemical_formula_sum   'Li72 P12 S60 I3 Br9'
_cell_volume   3030.34172057
_cell_formula_units_Z   3
loop_
 _symmetry_equiv_pos_site_id
 _symmetry_equiv_pos_as_xyz
  1  'x, y, z'
loop_
 _atom_type_symbol
 _atom_type_oxidation_number
  Li+  1.0
  P5+  5.0
  S2-  -2.0
  I-  -1.0
  Br-  -1.0
loop_
 _atom_site_type_symbol
 _atom_site_label
 _atom_site_symmetry_multiplicity
 _atom_site_fract_x
 _atom_site_fract_y
 _atom_site_fract_z
 _atom_site_occupancy
  Li+  Li0  1  0.49050000  0.74050000  0.42300000  1.0
  Li+  Li1  1  0.49408778  0.74225665  0.08935068  1.0
  Li+  Li2  1  0.49056709  0.24370482  0.75521675  1.0
  Li+  Li3  1  0.99050000  0.24050000  0.42300000  1.0
  Li+  Li4  1  0.99050000  0.24050000  0.08966667  1.0
  Li+  Li5  1  0.25950000  0.50950000  0.57700000  1.0
  Li+  Li6  1  0.75892918  0.00743075  0.57331591  1.0
  Li+  Li7  1  0.75950000  0.24050000  0.75633333  1.0
  Li+  Li8  1  0.25950000  0.00950000  0.08966667  1.0
  Li+  Li9  1  0.99050000  0.50950000  0.24366667  1.0
  Li+  Li10  1  0.49050000  0.24050000  0.57700000  1.0
  Li+  Li11  1  0.99050000  0.74050000  0.57700000  1.0
  Li+  Li12  1  0.99050000  0.24050000  0.24366667  1.0
  Li+  Li13  1  0.31610000  0.51310000  0.75873333  1.0
  Li+  Li14  1  0.81610000  0.01310000  0.42540000  1.0
  Li+  Li15  1  0.81610000  0.51310000  0.09206667  1.0
  Li+  Li16  1  0.81610000  0.01310000  0.09206667  1.0
  Li+  Li17  1  0.81327169  0.51393529  0.75914615  1.0
  Li+  Li18  1  0.81610000  0.01310000  0.75873333  1.0
  Li+  Li19  1  0.21010000  0.01310000  0.09206667  1.0
  Li+  Li20  1  0.20760899  0.51697442  0.75755398  1.0
  Li+  Li21  1  0.71476265  0.51584707  0.42663643  1.0
  Li+  Li22  1  0.71010000  0.01310000  0.42540000  1.0
  Li+  Li23  1  0.71010000  0.01310000  0.09206667  1.0
  Li+  Li24  1  0.21010000  0.68390000  0.42540000  1.0
  Li+  Li25  1  0.21010000  0.18390000  0.42540000  1.0
  Li+  Li26  1  0.21010000  0.18390000  0.09206667  1.0
  Li+  Li27  1  0.21010000  0.68390000  0.75873333  1.0
  Li+  Li28  1  0.21106439  0.18693454  0.75667868  1.0
  Li+  Li29  1  0.71010000  0.68390000  0.42540000  1.0
  Li+  Li30  1  0.70787019  0.18307289  0.42525385  1.0
  Li+  Li31  1  0.48690000  0.18390000  0.94326667  1.0
  Li+  Li32  1  0.98690000  0.18390000  0.27660000  1.0
  Li+  Li33  1  0.48816846  0.01152086  0.60815740  1.0
  Li+  Li34  1  0.48690000  0.51310000  0.27660000  1.0
  Li+  Li35  1  0.48690000  0.01310000  0.94326667  1.0
  Li+  Li36  1  0.98690000  0.51310000  0.94326667  1.0
  Li+  Li37  1  0.98690000  0.01310000  0.94326667  1.0
  Li+  Li38  1  0.20251228  0.01470779  0.87559959  1.0
  Li+  Li39  1  0.71010000  0.51310000  0.20593333  1.0
  Li+  Li40  1  0.71010000  0.51310000  0.87260000  1.0
  Li+  Li41  1  0.31610000  0.51310000  0.27660000  1.0
  Li+  Li42  1  0.31610000  0.01310000  0.27660000  1.0
  Li+  Li43  1  0.31610000  0.51310000  0.94326667  1.0
  Li+  Li44  1  0.81610000  0.51310000  0.60993333  1.0
  Li+  Li45  1  0.81610000  0.01310000  0.60993333  1.0
  Li+  Li46  1  0.81610000  0.51310000  0.27660000  1.0
  Li+  Li47  1  0.81610000  0.01310000  0.27660000  1.0
  Li+  Li48  1  0.48690000  0.78990000  0.53926667  1.0
  Li+  Li49  1  0.98690000  0.28990000  0.53926667  1.0
  Li+  Li50  1  0.98690000  0.78990000  0.20593333  1.0
  Li+  Li51  1  0.98690000  0.28990000  0.87260000  1.0
  Li+  Li52  1  0.31610000  0.78990000  0.42540000  1.0
  Li+  Li53  1  0.32017851  0.29129907  0.42387144  1.0
  Li+  Li54  1  0.31610000  0.78990000  0.09206667  1.0
  Li+  Li55  1  0.31603638  0.78931330  0.76250965  1.0
  Li+  Li56  1  0.81610000  0.28990000  0.09206667  1.0
  Li+  Li57  1  0.48635151  0.51138678  0.54046687  1.0
  Li+  Li58  1  0.49037104  0.01387910  0.20696293  1.0
  Li+  Li59  1  0.48856428  0.51312279  0.87188106  1.0
  Li+  Li60  1  0.98690000  0.01310000  0.53926667  1.0
  Li+  Li61  1  0.98690000  0.01310000  0.20593333  1.0
  Li+  Li62  1  0.98690000  0.51310000  0.87260000  1.0
  Li+  Li63  1  0.48690000  0.78990000  0.42540000  1.0
  Li+  Li64  1  0.48413539  0.29269454  0.42192004  1.0
  Li+  Li65  1  0.48336839  0.28746538  0.09211759  1.0
  Li+  Li66  1  0.98901566  0.79085548  0.42564599  1.0
  Li+  Li67  1  0.98690000  0.78990000  0.09206667  1.0
  Li+  Li68  1  0.98690000  0.28990000  0.09206667  1.0
  Li+  Li69  1  0.98690000  0.78990000  0.75873333  1.0
  Li+  Li70  1  0.98690000  0.28990000  0.75873333  1.0
  Li+  Li71  1  0.98788458  0.68535509  0.42770216  1.0
  P5+  P72  1  0.25000000  0.75000000  0.58333333  1.0
  P5+  P73  1  0.25000000  0.25000000  0.58333333  1.0
  P5+  P74  1  0.24753345  0.75052061  0.24728909  1.0
  P5+  P75  1  0.25000000  0.25000000  0.25000000  1.0
  P5+  P76  1  0.25000000  0.75000000  0.91666667  1.0
  P5+  P77  1  0.25000000  0.25000000  0.91666667  1.0
  P5+  P78  1  0.75000000  0.75000000  0.58333333  1.0
  P5+  P79  1  0.75000000  0.25000000  0.58333333  1.0
  P5+  P80  1  0.75000000  0.75000000  0.25000000  1.0
  P5+  P81  1  0.75000000  0.25000000  0.25000000  1.0
  P5+  P82  1  0.75000000  0.75000000  0.91666667  1.0
  P5+  P83  1  0.75364243  0.24839752  0.92091116  1.0
  S2-  S84  1  0.19115000  0.80885000  0.62256667  1.0
  S2-  S85  1  0.19115000  0.30885000  0.62256667  1.0
  S2-  S86  1  0.19115000  0.80885000  0.28923333  1.0
  S2-  S87  1  0.19115000  0.30885000  0.28923333  1.0
  S2-  S88  1  0.19115000  0.80885000  0.95590000  1.0
  S2-  S89  1  0.19436399  0.30730362  0.95269883  1.0
  S2-  S90  1  0.69219315  0.81241616  0.62338232  1.0
  S2-  S91  1  0.69115000  0.30885000  0.62256667  1.0
  S2-  S92  1  0.69115000  0.80885000  0.28923333  1.0
  S2-  S93  1  0.69115000  0.30885000  0.28923333  1.0
  S2-  S94  1  0.69410531  0.80911704  0.95842710  1.0
  S2-  S95  1  0.69115000  0.30885000  0.95590000  1.0
  S2-  S96  1  0.42631910  0.81013551  0.62250459  1.0
  S2-  S97  1  0.42655000  0.30885000  0.62256667  1.0
  S2-  S98  1  0.42655000  0.80885000  0.28923333  1.0
  S2-  S99  1  0.42655000  0.30885000  0.28923333  1.0
  S2-  S100  1  0.42655000  0.80885000  0.95590000  1.0
  S2-  S101  1  0.43079325  0.31222127  0.95448065  1.0
  S2-  S102  1  0.92655000  0.80885000  0.62256667  1.0
  S2-  S103  1  0.92589033  0.31050325  0.62358819  1.0
  S2-  S104  1  0.92655000  0.80885000  0.28923333  1.0
  S2-  S105  1  0.92655000  0.30885000  0.28923333  1.0
  S2-  S106  1  0.92655000  0.80885000  0.95590000  1.0
  S2-  S107  1  0.92882837  0.31021847  0.95973878  1.0
  S2-  S108  1  0.19020704  0.81031567  0.46352526  1.0
  S2-  S109  1  0.19115000  0.30885000  0.46563333  1.0
  S2-  S110  1  0.19115000  0.80885000  0.13230000  1.0
  S2-  S111  1  0.19249831  0.30890333  0.12754099  1.0
  S2-  S112  1  0.19115000  0.80885000  0.79896667  1.0
  S2-  S113  1  0.19115000  0.30885000  0.79896667  1.0
  S2-  S114  1  0.69115000  0.80885000  0.46563333  1.0
  S2-  S115  1  0.69164202  0.30824421  0.46906725  1.0
  S2-  S116  1  0.69115000  0.80885000  0.13230000  1.0
  S2-  S117  1  0.69115000  0.30885000  0.13230000  1.0
  S2-  S118  1  0.69115000  0.80885000  0.79896667  1.0
  S2-  S119  1  0.69115000  0.30885000  0.79896667  1.0
  S2-  S120  1  0.19115000  0.57345000  0.62256667  1.0
  S2-  S121  1  0.19115000  0.07345000  0.62256667  1.0
  S2-  S122  1  0.19115000  0.57345000  0.28923333  1.0
  S2-  S123  1  0.19115000  0.07345000  0.28923333  1.0
  S2-  S124  1  0.19115000  0.57345000  0.95590000  1.0
  S2-  S125  1  0.19115000  0.07345000  0.95590000  1.0
  S2-  S126  1  0.69115000  0.57345000  0.62256667  1.0
  S2-  S127  1  0.69115000  0.07345000  0.62256667  1.0
  S2-  S128  1  0.69115000  0.57345000  0.28923333  1.0
  S2-  S129  1  0.69081654  0.06997621  0.29098023  1.0
  S2-  S130  1  0.69115000  0.57345000  0.95590000  1.0
  S2-  S131  1  0.69115000  0.07345000  0.95590000  1.0
  S2-  S132  1  0.99602934  0.49580304  0.42040250  1.0
  S2-  S133  1  0.50000000  0.50000000  0.75000000  1.0
  S2-  S134  1  0.37500000  0.62500000  0.50000000  1.0
  S2-  S135  1  0.37954884  0.12560117  0.50101108  1.0
  S2-  S136  1  0.37500000  0.12500000  0.16666667  1.0
  S2-  S137  1  0.37512669  0.62139112  0.83293458  1.0
  S2-  S138  1  0.87500000  0.62500000  0.50000000  1.0
  S2-  S139  1  0.87500000  0.12500000  0.50000000  1.0
  S2-  S140  1  0.87500000  0.62500000  0.16666667  1.0
  S2-  S141  1  0.87500000  0.12500000  0.16666667  1.0
  S2-  S142  1  0.87500000  0.62500000  0.83333333  1.0
  S2-  S143  1  0.87500000  0.12500000  0.83333333  1.0
  I-  I144  1  0.00000000  0.00000000  0.75000000  1.0
  I-  I145  1  0.50000000  0.50000000  0.08333333  1.0
  I-  I146  1  0.37500000  0.12500000  0.83333333  1.0
  Br-  Br147  1  0.00000000  0.50000000  0.75000000  1.0
  Br-  Br148  1  0.00000000  0.00000000  0.41666667  1.0
  Br-  Br149  1  0.00058635  0.99784457  0.08461343  1.0
  Br-  Br150  1  0.00000000  0.50000000  0.08333333  1.0
  Br-  Br151  1  0.50017087  0.00466399  0.75001040  1.0
  Br-  Br152  1  0.50000000  0.00000000  0.41666667  1.0
  Br-  Br153  1  0.49923942  0.49731497  0.41877473  1.0
  Br-  Br154  1  0.50000000  0.00000000  0.08333333  1.0
  Br-  Br155  1  0.37235645  0.62216447  0.16725766  1.0
