# generated using pymatgen
data_Li24P4S20IBr3
_symmetry_space_group_name_H-M   'P 1'
_cell_length_a   21.27348979
_cell_length_b   14.18232653
_cell_length_c   14.18232653
_cell_angle_alpha   120.00000000
_cell_angle_beta   120.00000000
_cell_angle_gamma   60.00000000
_symmetry_Int_Tables_number   1
_chemical_formula_structural   Li24P4S20IBr3
_chemical_formula_sum   'Li72 P12 S60 I3 Br9'
_cell_volume   3025.65009318
_cell_formula_units_Z   3
loop_
 _symmetry_equiv_pos_site_id
 _symmetry_equiv_pos_as_xyz
  1  'x, y, z'
loop_
 _atom_type_symbol
 _atom_type_oxidation_number
  Li+  1.0
  P5+  5.0
  S2-  -2.0
  I-  -1.0
  Br-  -1.0
loop_
 _atom_site_type_symbol
 _atom_site_label
 _atom_site_symmetry_multiplicity
 _atom_site_fract_x
 _atom_site_fract_y
 _atom_site_fract_z
 _atom_site_occupancy
  Li+  Li0  1  0.67300000  0.17616667  0.25950000  1.0
  Li+  Li1  1  0.33966667  0.17616667  0.25950000  1.0
  Li+  Li2  1  0.00633333  0.17616667  0.75950000  1.0
  Li+  Li3  1  0.67300000  0.67616667  0.75950000  1.0
  Li+  Li4  1  0.33966667  0.67616667  0.75950000  1.0
  Li+  Li5  1  0.82700000  0.40716667  0.49050000  1.0
  Li+  Li6  1  0.82700000  0.90716667  0.99050000  1.0
  Li+  Li7  1  0.00633333  0.90716667  0.75950000  1.0
  Li+  Li8  1  0.33966667  0.40716667  0.99050000  1.0
  Li+  Li9  1  0.49366667  0.67616667  0.49050000  1.0
  Li+  Li10  1  0.82700000  0.17616667  0.75950000  1.0
  Li+  Li11  1  0.82700000  0.67616667  0.25950000  1.0
  Li+  Li12  1  0.49366667  0.67616667  0.75950000  1.0
  Li+  Li13  1  0.00873333  0.35056667  0.48690000  1.0
  Li+  Li14  1  0.67540000  0.85056667  0.98690000  1.0
  Li+  Li15  1  0.34206667  0.85056667  0.48690000  1.0
  Li+  Li16  1  0.34206667  0.85056667  0.98690000  1.0
  Li+  Li17  1  0.00873333  0.85056667  0.48690000  1.0
  Li+  Li18  1  0.00873333  0.85056667  0.98690000  1.0
  Li+  Li19  1  0.34206667  0.45656667  0.98690000  1.0
  Li+  Li20  1  0.00873333  0.45656667  0.48690000  1.0
  Li+  Li21  1  0.67540000  0.95656667  0.48690000  1.0
  Li+  Li22  1  0.67540000  0.95656667  0.98690000  1.0
  Li+  Li23  1  0.34206667  0.95656667  0.98690000  1.0
  Li+  Li24  1  0.67540000  0.45656667  0.31610000  1.0
  Li+  Li25  1  0.67540000  0.45656667  0.81610000  1.0
  Li+  Li26  1  0.34206667  0.45656667  0.81610000  1.0
  Li+  Li27  1  0.00873333  0.45656667  0.31610000  1.0
  Li+  Li28  1  0.00873333  0.45656667  0.81610000  1.0
  Li+  Li29  1  0.67540000  0.95656667  0.31610000  1.0
  Li+  Li30  1  0.67540000  0.95656667  0.81610000  1.0
  Li+  Li31  1  0.19326667  0.17976667  0.81610000  1.0
  Li+  Li32  1  0.52660000  0.67976667  0.81610000  1.0
  Li+  Li33  1  0.85993333  0.17976667  0.98690000  1.0
  Li+  Li34  1  0.52660000  0.17976667  0.48690000  1.0
  Li+  Li35  1  0.19326667  0.17976667  0.98690000  1.0
  Li+  Li36  1  0.19326667  0.67976667  0.48690000  1.0
  Li+  Li37  1  0.19326667  0.67976667  0.98690000  1.0
  Li+  Li38  1  0.12260000  0.45656667  0.98690000  1.0
  Li+  Li39  1  0.45593333  0.95656667  0.48690000  1.0
  Li+  Li40  1  0.12260000  0.95656667  0.48690000  1.0
  Li+  Li41  1  0.52660000  0.35056667  0.48690000  1.0
  Li+  Li42  1  0.52660000  0.35056667  0.98690000  1.0
  Li+  Li43  1  0.19326667  0.35056667  0.48690000  1.0
  Li+  Li44  1  0.85993333  0.85056667  0.48690000  1.0
  Li+  Li45  1  0.85993333  0.85056667  0.98690000  1.0
  Li+  Li46  1  0.52660000  0.85056667  0.48690000  1.0
  Li+  Li47  1  0.52660000  0.85056667  0.98690000  1.0
  Li+  Li48  1  0.78926667  0.17976667  0.21010000  1.0
  Li+  Li49  1  0.78926667  0.67976667  0.71010000  1.0
  Li+  Li50  1  0.45593333  0.67976667  0.21010000  1.0
  Li+  Li51  1  0.12260000  0.67976667  0.71010000  1.0
  Li+  Li52  1  0.67540000  0.35056667  0.21010000  1.0
  Li+  Li53  1  0.67540000  0.35056667  0.71010000  1.0
  Li+  Li54  1  0.34206667  0.35056667  0.21010000  1.0
  Li+  Li55  1  0.00873333  0.35056667  0.21010000  1.0
  Li+  Li56  1  0.34206667  0.85056667  0.71010000  1.0
  Li+  Li57  1  0.78926667  0.17976667  0.48690000  1.0
  Li+  Li58  1  0.45593333  0.17976667  0.98690000  1.0
  Li+  Li59  1  0.12260000  0.17976667  0.48690000  1.0
  Li+  Li60  1  0.78926667  0.67976667  0.98690000  1.0
  Li+  Li61  1  0.45593333  0.67976667  0.98690000  1.0
  Li+  Li62  1  0.12260000  0.67976667  0.48690000  1.0
  Li+  Li63  1  0.67540000  0.17976667  0.21010000  1.0
  Li+  Li64  1  0.67540000  0.17976667  0.71010000  1.0
  Li+  Li65  1  0.34206667  0.17976667  0.71010000  1.0
  Li+  Li66  1  0.67540000  0.67976667  0.21010000  1.0
  Li+  Li67  1  0.34206667  0.67976667  0.21010000  1.0
  Li+  Li68  1  0.34206667  0.67976667  0.71010000  1.0
  Li+  Li69  1  0.00873333  0.67976667  0.21010000  1.0
  Li+  Li70  1  0.00873333  0.67976667  0.71010000  1.0
  Li+  Li71  1  0.67540000  0.67976667  0.31610000  1.0
  P5+  P72  1  0.83333333  0.41666667  0.25000000  1.0
  P5+  P73  1  0.83333333  0.41666667  0.75000000  1.0
  P5+  P74  1  0.50000000  0.41666667  0.25000000  1.0
  P5+  P75  1  0.50000000  0.41666667  0.75000000  1.0
  P5+  P76  1  0.16666667  0.41666667  0.25000000  1.0
  P5+  P77  1  0.16666667  0.41666667  0.75000000  1.0
  P5+  P78  1  0.83333333  0.91666667  0.25000000  1.0
  P5+  P79  1  0.83333333  0.91666667  0.75000000  1.0
  P5+  P80  1  0.50000000  0.91666667  0.25000000  1.0
  P5+  P81  1  0.50000000  0.91666667  0.75000000  1.0
  P5+  P82  1  0.16666667  0.91666667  0.25000000  1.0
  P5+  P83  1  0.16666667  0.91666667  0.75000000  1.0
  S2-  S84  1  0.87256667  0.47551667  0.19115000  1.0
  S2-  S85  1  0.87256667  0.47551667  0.69115000  1.0
  S2-  S86  1  0.53923333  0.47551667  0.19115000  1.0
  S2-  S87  1  0.53923333  0.47551667  0.69115000  1.0
  S2-  S88  1  0.20590000  0.47551667  0.19115000  1.0
  S2-  S89  1  0.20590000  0.47551667  0.69115000  1.0
  S2-  S90  1  0.87256667  0.97551667  0.19115000  1.0
  S2-  S91  1  0.87256667  0.97551667  0.69115000  1.0
  S2-  S92  1  0.53923333  0.97551667  0.19115000  1.0
  S2-  S93  1  0.53923333  0.97551667  0.69115000  1.0
  S2-  S94  1  0.20590000  0.97551667  0.19115000  1.0
  S2-  S95  1  0.20590000  0.97551667  0.69115000  1.0
  S2-  S96  1  0.87256667  0.24011667  0.19115000  1.0
  S2-  S97  1  0.87256667  0.24011667  0.69115000  1.0
  S2-  S98  1  0.53923333  0.24011667  0.19115000  1.0
  S2-  S99  1  0.53923333  0.24011667  0.69115000  1.0
  S2-  S100  1  0.20590000  0.24011667  0.19115000  1.0
  S2-  S101  1  0.20590000  0.24011667  0.69115000  1.0
  S2-  S102  1  0.87256667  0.74011667  0.19115000  1.0
  S2-  S103  1  0.87256667  0.74011667  0.69115000  1.0
  S2-  S104  1  0.53923333  0.74011667  0.19115000  1.0
  S2-  S105  1  0.53923333  0.74011667  0.69115000  1.0
  S2-  S106  1  0.20590000  0.74011667  0.19115000  1.0
  S2-  S107  1  0.20590000  0.74011667  0.69115000  1.0
  S2-  S108  1  0.71563333  0.47551667  0.19115000  1.0
  S2-  S109  1  0.71563333  0.47551667  0.69115000  1.0
  S2-  S110  1  0.38230000  0.47551667  0.19115000  1.0
  S2-  S111  1  0.38230000  0.47551667  0.69115000  1.0
  S2-  S112  1  0.04896667  0.47551667  0.19115000  1.0
  S2-  S113  1  0.04896667  0.47551667  0.69115000  1.0
  S2-  S114  1  0.71563333  0.97551667  0.19115000  1.0
  S2-  S115  1  0.71563333  0.97551667  0.69115000  1.0
  S2-  S116  1  0.38230000  0.97551667  0.19115000  1.0
  S2-  S117  1  0.38230000  0.97551667  0.69115000  1.0
  S2-  S118  1  0.04896667  0.97551667  0.19115000  1.0
  S2-  S119  1  0.04896667  0.97551667  0.69115000  1.0
  S2-  S120  1  0.87256667  0.47551667  0.42655000  1.0
  S2-  S121  1  0.87256667  0.47551667  0.92655000  1.0
  S2-  S122  1  0.53923333  0.47551667  0.42655000  1.0
  S2-  S123  1  0.53923333  0.47551667  0.92655000  1.0
  S2-  S124  1  0.20590000  0.47551667  0.42655000  1.0
  S2-  S125  1  0.20590000  0.47551667  0.92655000  1.0
  S2-  S126  1  0.87256667  0.97551667  0.42655000  1.0
  S2-  S127  1  0.87256667  0.97551667  0.92655000  1.0
  S2-  S128  1  0.53923333  0.97551667  0.42655000  1.0
  S2-  S129  1  0.53923333  0.97551667  0.92655000  1.0
  S2-  S130  1  0.20590000  0.97551667  0.42655000  1.0
  S2-  S131  1  0.20590000  0.97551667  0.92655000  1.0
  S2-  S132  1  0.66666667  0.66666667  0.50000000  1.0
  S2-  S133  1  0.00000000  0.16666667  0.50000000  1.0
  S2-  S134  1  0.75000000  0.29166667  0.37500000  1.0
  S2-  S135  1  0.75000000  0.29166667  0.87500000  1.0
  S2-  S136  1  0.41666667  0.29166667  0.87500000  1.0
  S2-  S137  1  0.08333333  0.29166667  0.37500000  1.0
  S2-  S138  1  0.75000000  0.79166667  0.37500000  1.0
  S2-  S139  1  0.75000000  0.79166667  0.87500000  1.0
  S2-  S140  1  0.41666667  0.79166667  0.37500000  1.0
  S2-  S141  1  0.41666667  0.79166667  0.87500000  1.0
  S2-  S142  1  0.08333333  0.79166667  0.37500000  1.0
  S2-  S143  1  0.08333333  0.79166667  0.87500000  1.0
  I-  I144  1  0.00000000  0.66666667  0.00000000  1.0
  I-  I145  1  0.33333333  0.16666667  0.50000000  1.0
  I-  I146  1  0.08333333  0.29166667  0.87500000  1.0
  Br-  Br147  1  0.00000000  0.66666667  0.50000000  1.0
  Br-  Br148  1  0.66666667  0.66666667  0.00000000  1.0
  Br-  Br149  1  0.33333333  0.66666667  0.00000000  1.0
  Br-  Br150  1  0.33333333  0.66666667  0.50000000  1.0
  Br-  Br151  1  0.00000000  0.16666667  0.00000000  1.0
  Br-  Br152  1  0.66666667  0.16666667  0.00000000  1.0
  Br-  Br153  1  0.66666667  0.16666667  0.50000000  1.0
  Br-  Br154  1  0.33333333  0.16666667  0.00000000  1.0
  Br-  Br155  1  0.41666667  0.29166667  0.37500000  1.0
