# generated using pymatgen
data_Li24P4S20IBr3
_symmetry_space_group_name_H-M   'P 1'
_cell_length_a   14.18965320
_cell_length_b   21.28447980
_cell_length_c   14.18965320
_cell_angle_alpha   60.00000000
_cell_angle_beta   60.00000000
_cell_angle_gamma   60.00000000
_symmetry_Int_Tables_number   1
_chemical_formula_structural   Li24P4S20IBr3
_chemical_formula_sum   'Li72 P12 S60 I3 Br9'
_cell_volume   3030.34172057
_cell_formula_units_Z   3
loop_
 _symmetry_equiv_pos_site_id
 _symmetry_equiv_pos_as_xyz
  1  'x, y, z'
loop_
 _atom_type_symbol
 _atom_type_oxidation_number
  Li+  1.0
  P5+  5.0
  S2-  -2.0
  I-  -1.0
  Br-  -1.0
loop_
 _atom_site_type_symbol
 _atom_site_label
 _atom_site_symmetry_multiplicity
 _atom_site_fract_x
 _atom_site_fract_y
 _atom_site_fract_z
 _atom_site_occupancy
  Li+  Li0  1  0.49050000  0.32700000  0.25950000  1.0
  Li+  Li1  1  0.49050000  0.66033333  0.25950000  1.0
  Li+  Li2  1  0.49050000  0.99366667  0.75950000  1.0
  Li+  Li3  1  0.99050000  0.32700000  0.75950000  1.0
  Li+  Li4  1  0.99050000  0.66033333  0.75950000  1.0
  Li+  Li5  1  0.25950000  0.17300000  0.49050000  1.0
  Li+  Li6  1  0.75950000  0.17300000  0.99050000  1.0
  Li+  Li7  1  0.75950000  0.99366667  0.75950000  1.0
  Li+  Li8  1  0.25950000  0.66033333  0.99050000  1.0
  Li+  Li9  1  0.99050000  0.50633333  0.49050000  1.0
  Li+  Li10  1  0.49050000  0.17300000  0.75950000  1.0
  Li+  Li11  1  0.99050000  0.17300000  0.25950000  1.0
  Li+  Li12  1  0.99050000  0.50633333  0.75950000  1.0
  Li+  Li13  1  0.31610000  0.99126667  0.48690000  1.0
  Li+  Li14  1  0.81610000  0.32460000  0.98690000  1.0
  Li+  Li15  1  0.81610000  0.65793333  0.48690000  1.0
  Li+  Li16  1  0.81610000  0.65793333  0.98690000  1.0
  Li+  Li17  1  0.81610000  0.99126667  0.48690000  1.0
  Li+  Li18  1  0.81610000  0.99126667  0.98690000  1.0
  Li+  Li19  1  0.21010000  0.65793333  0.98690000  1.0
  Li+  Li20  1  0.21010000  0.99126667  0.48690000  1.0
  Li+  Li21  1  0.71010000  0.32460000  0.48690000  1.0
  Li+  Li22  1  0.71010000  0.32460000  0.98690000  1.0
  Li+  Li23  1  0.71010000  0.65793333  0.98690000  1.0
  Li+  Li24  1  0.21010000  0.32460000  0.31610000  1.0
  Li+  Li25  1  0.21010000  0.32460000  0.81610000  1.0
  Li+  Li26  1  0.21010000  0.65793333  0.81610000  1.0
  Li+  Li27  1  0.21010000  0.99126667  0.31610000  1.0
  Li+  Li28  1  0.21010000  0.99126667  0.81610000  1.0
  Li+  Li29  1  0.71010000  0.32460000  0.31610000  1.0
  Li+  Li30  1  0.71010000  0.32460000  0.81610000  1.0
  Li+  Li31  1  0.48690000  0.80673333  0.81610000  1.0
  Li+  Li32  1  0.98690000  0.47340000  0.81610000  1.0
  Li+  Li33  1  0.48690000  0.14006667  0.98690000  1.0
  Li+  Li34  1  0.48690000  0.47340000  0.48690000  1.0
  Li+  Li35  1  0.48690000  0.80673333  0.98690000  1.0
  Li+  Li36  1  0.98690000  0.80673333  0.48690000  1.0
  Li+  Li37  1  0.98690000  0.80673333  0.98690000  1.0
  Li+  Li38  1  0.21010000  0.87740000  0.98690000  1.0
  Li+  Li39  1  0.71010000  0.54406667  0.48690000  1.0
  Li+  Li40  1  0.71010000  0.87740000  0.48690000  1.0
  Li+  Li41  1  0.31610000  0.47340000  0.48690000  1.0
  Li+  Li42  1  0.31610000  0.47340000  0.98690000  1.0
  Li+  Li43  1  0.31610000  0.80673333  0.48690000  1.0
  Li+  Li44  1  0.81610000  0.14006667  0.48690000  1.0
  Li+  Li45  1  0.81610000  0.14006667  0.98690000  1.0
  Li+  Li46  1  0.81610000  0.47340000  0.48690000  1.0
  Li+  Li47  1  0.81610000  0.47340000  0.98690000  1.0
  Li+  Li48  1  0.48690000  0.21073333  0.21010000  1.0
  Li+  Li49  1  0.98690000  0.21073333  0.71010000  1.0
  Li+  Li50  1  0.98690000  0.54406667  0.21010000  1.0
  Li+  Li51  1  0.98690000  0.87740000  0.71010000  1.0
  Li+  Li52  1  0.31610000  0.32460000  0.21010000  1.0
  Li+  Li53  1  0.31610000  0.32460000  0.71010000  1.0
  Li+  Li54  1  0.31610000  0.65793333  0.21010000  1.0
  Li+  Li55  1  0.31610000  0.99126667  0.21010000  1.0
  Li+  Li56  1  0.81610000  0.65793333  0.71010000  1.0
  Li+  Li57  1  0.48690000  0.21073333  0.48690000  1.0
  Li+  Li58  1  0.48690000  0.54406667  0.98690000  1.0
  Li+  Li59  1  0.48690000  0.87740000  0.48690000  1.0
  Li+  Li60  1  0.98690000  0.21073333  0.98690000  1.0
  Li+  Li61  1  0.98690000  0.54406667  0.98690000  1.0
  Li+  Li62  1  0.98690000  0.87740000  0.48690000  1.0
  Li+  Li63  1  0.48690000  0.32460000  0.21010000  1.0
  Li+  Li64  1  0.48690000  0.32460000  0.71010000  1.0
  Li+  Li65  1  0.48690000  0.65793333  0.71010000  1.0
  Li+  Li66  1  0.98690000  0.32460000  0.21010000  1.0
  Li+  Li67  1  0.98690000  0.65793333  0.21010000  1.0
  Li+  Li68  1  0.98690000  0.65793333  0.71010000  1.0
  Li+  Li69  1  0.98690000  0.99126667  0.21010000  1.0
  Li+  Li70  1  0.98690000  0.99126667  0.71010000  1.0
  Li+  Li71  1  0.98690000  0.32460000  0.31610000  1.0
  P5+  P1  1  0.25000000  0.16666667  0.25000000  1.0
  P5+  P1  1  0.25000000  0.16666667  0.75000000  1.0
  P5+  P1  1  0.25000000  0.50000000  0.25000000  1.0
  P5+  P1  1  0.25000000  0.50000000  0.75000000  1.0
  P5+  P1  1  0.25000000  0.83333333  0.25000000  1.0
  P5+  P1  1  0.25000000  0.83333333  0.75000000  1.0
  P5+  P1  1  0.75000000  0.16666667  0.25000000  1.0
  P5+  P1  1  0.75000000  0.16666667  0.75000000  1.0
  P5+  P1  1  0.75000000  0.50000000  0.25000000  1.0
  P5+  P1  1  0.75000000  0.50000000  0.75000000  1.0
  P5+  P1  1  0.75000000  0.83333333  0.25000000  1.0
  P5+  P1  1  0.75000000  0.83333333  0.75000000  1.0
  S2-  S2  1  0.19115000  0.12743333  0.19115000  1.0
  S2-  S2  1  0.19115000  0.12743333  0.69115000  1.0
  S2-  S2  1  0.19115000  0.46076667  0.19115000  1.0
  S2-  S2  1  0.19115000  0.46076667  0.69115000  1.0
  S2-  S2  1  0.19115000  0.79410000  0.19115000  1.0
  S2-  S2  1  0.19115000  0.79410000  0.69115000  1.0
  S2-  S2  1  0.69115000  0.12743333  0.19115000  1.0
  S2-  S2  1  0.69115000  0.12743333  0.69115000  1.0
  S2-  S2  1  0.69115000  0.46076667  0.19115000  1.0
  S2-  S2  1  0.69115000  0.46076667  0.69115000  1.0
  S2-  S2  1  0.69115000  0.79410000  0.19115000  1.0
  S2-  S2  1  0.69115000  0.79410000  0.69115000  1.0
  S2-  S2  1  0.42655000  0.12743333  0.19115000  1.0
  S2-  S2  1  0.42655000  0.12743333  0.69115000  1.0
  S2-  S2  1  0.42655000  0.46076667  0.19115000  1.0
  S2-  S2  1  0.42655000  0.46076667  0.69115000  1.0
  S2-  S2  1  0.42655000  0.79410000  0.19115000  1.0
  S2-  S2  1  0.42655000  0.79410000  0.69115000  1.0
  S2-  S2  1  0.92655000  0.12743333  0.19115000  1.0
  S2-  S2  1  0.92655000  0.12743333  0.69115000  1.0
  S2-  S2  1  0.92655000  0.46076667  0.19115000  1.0
  S2-  S2  1  0.92655000  0.46076667  0.69115000  1.0
  S2-  S2  1  0.92655000  0.79410000  0.19115000  1.0
  S2-  S2  1  0.92655000  0.79410000  0.69115000  1.0
  S2-  S2  1  0.19115000  0.28436667  0.19115000  1.0
  S2-  S2  1  0.19115000  0.28436667  0.69115000  1.0
  S2-  S2  1  0.19115000  0.61770000  0.19115000  1.0
  S2-  S2  1  0.19115000  0.61770000  0.69115000  1.0
  S2-  S2  1  0.19115000  0.95103333  0.19115000  1.0
  S2-  S2  1  0.19115000  0.95103333  0.69115000  1.0
  S2-  S2  1  0.69115000  0.28436667  0.19115000  1.0
  S2-  S2  1  0.69115000  0.28436667  0.69115000  1.0
  S2-  S2  1  0.69115000  0.61770000  0.19115000  1.0
  S2-  S2  1  0.69115000  0.61770000  0.69115000  1.0
  S2-  S2  1  0.69115000  0.95103333  0.19115000  1.0
  S2-  S2  1  0.69115000  0.95103333  0.69115000  1.0
  S2-  S2  1  0.19115000  0.12743333  0.42655000  1.0
  S2-  S2  1  0.19115000  0.12743333  0.92655000  1.0
  S2-  S2  1  0.19115000  0.46076667  0.42655000  1.0
  S2-  S2  1  0.19115000  0.46076667  0.92655000  1.0
  S2-  S2  1  0.19115000  0.79410000  0.42655000  1.0
  S2-  S2  1  0.19115000  0.79410000  0.92655000  1.0
  S2-  S2  1  0.69115000  0.12743333  0.42655000  1.0
  S2-  S2  1  0.69115000  0.12743333  0.92655000  1.0
  S2-  S2  1  0.69115000  0.46076667  0.42655000  1.0
  S2-  S2  1  0.69115000  0.46076667  0.92655000  1.0
  S2-  S2  1  0.69115000  0.79410000  0.42655000  1.0
  S2-  S2  1  0.69115000  0.79410000  0.92655000  1.0
  S2-  S132  1  0.00000000  0.33333333  0.50000000  1.0
  S2-  S133  1  0.50000000  0.00000000  0.50000000  1.0
  S2-  S134  1  0.37500000  0.25000000  0.37500000  1.0
  S2-  S135  1  0.37500000  0.25000000  0.87500000  1.0
  S2-  S136  1  0.37500000  0.58333333  0.87500000  1.0
  S2-  S137  1  0.37500000  0.91666667  0.37500000  1.0
  S2-  S138  1  0.87500000  0.25000000  0.37500000  1.0
  S2-  S139  1  0.87500000  0.25000000  0.87500000  1.0
  S2-  S140  1  0.87500000  0.58333333  0.37500000  1.0
  S2-  S141  1  0.87500000  0.58333333  0.87500000  1.0
  S2-  S142  1  0.87500000  0.91666667  0.37500000  1.0
  S2-  S143  1  0.87500000  0.91666667  0.87500000  1.0
  I-  I144  1  0.00000000  0.00000000  0.00000000  1.0
  I-  I145  1  0.50000000  0.66666667  0.50000000  1.0
  I-  I146  1  0.37500000  0.91666667  0.87500000  1.0
  Br-  Br147  1  0.00000000  0.00000000  0.50000000  1.0
  Br-  Br148  1  0.00000000  0.33333333  0.00000000  1.0
  Br-  Br149  1  0.00000000  0.66666667  0.00000000  1.0
  Br-  Br150  1  0.00000000  0.66666667  0.50000000  1.0
  Br-  Br151  1  0.50000000  0.00000000  0.00000000  1.0
  Br-  Br152  1  0.50000000  0.33333333  0.00000000  1.0
  Br-  Br153  1  0.50000000  0.33333333  0.50000000  1.0
  Br-  Br154  1  0.50000000  0.66666667  0.00000000  1.0
  Br-  Br155  1  0.37500000  0.58333333  0.37500000  1.0
