# generated using pymatgen
data_Li3AlGe3(PO4)6
_symmetry_space_group_name_H-M   'P 1'
_cell_length_a   8.26190000
_cell_length_b   41.30950000
_cell_length_c   8.35145282
_cell_angle_alpha   60.35408532
_cell_angle_beta   60.35408532
_cell_angle_gamma   60.00000000
_symmetry_Int_Tables_number   1
_chemical_formula_structural   Li3AlGe3(PO4)6
_chemical_formula_sum   'Li15 Al5 Ge15 P30 O120'
_cell_volume   2026.19217539
_cell_formula_units_Z   5
loop_
 _symmetry_equiv_pos_site_id
 _symmetry_equiv_pos_as_xyz
  1  'x, y, z'
loop_
 _atom_type_symbol
 _atom_type_oxidation_number
  Li+  1.0
  Al3+  3.0
  Ge4+  4.0
  P5+  5.0
  O2-  -2.0
loop_
 _atom_site_type_symbol
 _atom_site_label
 _atom_site_symmetry_multiplicity
 _atom_site_fract_x
 _atom_site_fract_y
 _atom_site_fract_z
 _atom_site_occupancy
  Li+  Li0  1  0.70800000  0.08780000  0.68600000  1.0
  Li+  Li1  1  0.70800000  0.68780000  0.68600000  1.0
  Li+  Li2  1  0.66700000  0.18780000  0.18600000  1.0
  Li+  Li3  1  0.66700000  0.38780000  0.18600000  1.0
  Li+  Li4  1  0.20800000  0.73340000  0.18600000  1.0
  Li+  Li5  1  0.29200000  0.91220000  0.31400000  1.0
  Li+  Li6  1  0.33300000  0.01220000  0.81400000  1.0
  Li+  Li7  1  0.50000000  0.10000000  0.50000000  1.0
  Li+  Li8  1  0.50000000  0.50000000  0.50000000  1.0
  Li+  Li9  1  0.50000000  0.90000000  0.50000000  1.0
  Li+  Li10  1  0.00000000  0.00000000  0.00000000  1.0
  Li+  Li11  1  0.00000000  0.20000000  0.00000000  1.0
  Li+  Li12  1  0.00000000  0.40000000  0.00000000  1.0
  Li+  Li13  1  1.00000000  0.60000000  1.00000000  1.0
  Li+  Li14  1  1.00000000  0.80000000  0.00000000  1.0
  Al3+  Al15  1  0.35865000  0.07173000  0.92405000  1.0
  Al3+  Al16  1  0.35865000  0.67173000  0.92405000  1.0
  Al3+  Al17  1  0.85865000  0.17173000  0.42405000  1.0
  Al3+  Al18  1  0.64135000  0.72827000  0.07595000  1.0
  Al3+  Al19  1  0.14135000  0.02827000  0.57595000  1.0
  Ge4+  Ge20  1  0.35865000  0.27173000  0.92405000  1.0
  Ge4+  Ge21  1  0.35865000  0.47173000  0.92405000  1.0
  Ge4+  Ge22  1  0.35865000  0.87173000  0.92405000  1.0
  Ge4+  Ge23  1  0.85865000  0.37173000  0.42405000  1.0
  Ge4+  Ge24  1  0.85865000  0.57173000  0.42405000  1.0
  Ge4+  Ge25  1  0.85865000  0.77173000  0.42405000  1.0
  Ge4+  Ge26  1  0.85865000  0.97173000  0.42405000  1.0
  Ge4+  Ge27  1  0.64135000  0.12827000  0.07595000  1.0
  Ge4+  Ge28  1  0.64135000  0.32827000  0.07595000  1.0
  Ge4+  Ge29  1  0.64135000  0.52827000  0.07595000  1.0
  Ge4+  Ge30  1  0.64135000  0.92827000  0.07595000  1.0
  Ge4+  Ge31  1  0.14135000  0.22827000  0.57595000  1.0
  Ge4+  Ge32  1  0.14135000  0.42827000  0.57595000  1.0
  Ge4+  Ge33  1  0.14135000  0.62827000  0.57595000  1.0
  Ge4+  Ge34  1  0.14135000  0.82827000  0.57595000  1.0
  P5+  P1  1  0.25000000  0.19252000  0.25000000  1.0
  P5+  P1  1  0.25000000  0.39252000  0.25000000  1.0
  P5+  P1  1  0.25000000  0.59252000  0.25000000  1.0
  P5+  P1  1  0.25000000  0.79252000  0.25000000  1.0
  P5+  P1  1  0.25000000  0.99252000  0.25000000  1.0
  P5+  P1  1  0.53740000  0.05000000  0.25000000  1.0
  P5+  P1  1  0.53740000  0.25000000  0.25000000  1.0
  P5+  P1  1  0.53740000  0.45000000  0.25000000  1.0
  P5+  P1  1  0.53740000  0.65000000  0.25000000  1.0
  P5+  P1  1  0.53740000  0.85000000  0.25000000  1.0
  P5+  P1  1  0.96260000  0.10748000  0.25000000  1.0
  P5+  P1  1  0.96260000  0.30748000  0.25000000  1.0
  P5+  P1  1  0.96260000  0.50748000  0.25000000  1.0
  P5+  P1  1  0.96260000  0.70748000  0.25000000  1.0
  P5+  P1  1  0.96260000  0.90748000  0.25000000  1.0
  P5+  P1  1  0.46260000  0.15000000  0.75000000  1.0
  P5+  P1  1  0.46260000  0.35000000  0.75000000  1.0
  P5+  P1  1  0.46260000  0.55000000  0.75000000  1.0
  P5+  P1  1  0.46260000  0.75000000  0.75000000  1.0
  P5+  P1  1  0.46260000  0.95000000  0.75000000  1.0
  P5+  P1  1  0.03740000  0.09252000  0.75000000  1.0
  P5+  P1  1  0.03740000  0.29252000  0.75000000  1.0
  P5+  P1  1  0.03740000  0.49252000  0.75000000  1.0
  P5+  P1  1  0.03740000  0.69252000  0.75000000  1.0
  P5+  P1  1  0.03740000  0.89252000  0.75000000  1.0
  P5+  P1  1  0.75000000  0.00748000  0.75000000  1.0
  P5+  P1  1  0.75000000  0.20748000  0.75000000  1.0
  P5+  P1  1  0.75000000  0.40748000  0.75000000  1.0
  P5+  P1  1  0.75000000  0.60748000  0.75000000  1.0
  P5+  P1  1  0.75000000  0.80748000  0.75000000  1.0
  O2-  O1  1  0.29264000  0.02666800  0.06658000  1.0
  O2-  O1  1  0.29264000  0.22666800  0.06658000  1.0
  O2-  O1  1  0.29264000  0.42666800  0.06658000  1.0
  O2-  O1  1  0.29264000  0.62666800  0.06658000  1.0
  O2-  O1  1  0.29264000  0.82666800  0.06658000  1.0
  O2-  O1  1  0.50744000  0.05852800  0.06658000  1.0
  O2-  O1  1  0.50744000  0.25852800  0.06658000  1.0
  O2-  O1  1  0.50744000  0.45852800  0.06658000  1.0
  O2-  O1  1  0.50744000  0.65852800  0.06658000  1.0
  O2-  O1  1  0.50744000  0.85852800  0.06658000  1.0
  O2-  O1  1  0.13334000  0.10148800  0.06658000  1.0
  O2-  O1  1  0.13334000  0.30148800  0.06658000  1.0
  O2-  O1  1  0.13334000  0.50148800  0.06658000  1.0
  O2-  O1  1  0.13334000  0.70148800  0.06658000  1.0
  O2-  O1  1  0.13334000  0.90148800  0.06658000  1.0
  O2-  O1  1  0.63334000  0.15852800  0.56658000  1.0
  O2-  O1  1  0.63334000  0.35852800  0.56658000  1.0
  O2-  O1  1  0.63334000  0.55852800  0.56658000  1.0
  O2-  O1  1  0.63334000  0.75852800  0.56658000  1.0
  O2-  O1  1  0.63334000  0.95852800  0.56658000  1.0
  O2-  O1  1  0.00744000  0.12666800  0.56658000  1.0
  O2-  O1  1  0.00744000  0.32666800  0.56658000  1.0
  O2-  O1  1  0.00744000  0.52666800  0.56658000  1.0
  O2-  O1  1  0.00744000  0.72666800  0.56658000  1.0
  O2-  O1  1  0.00744000  0.92666800  0.56658000  1.0
  O2-  O1  1  0.79264000  0.00148800  0.56658000  1.0
  O2-  O1  1  0.79264000  0.20148800  0.56658000  1.0
  O2-  O1  1  0.79264000  0.40148800  0.56658000  1.0
  O2-  O1  1  0.79264000  0.60148800  0.56658000  1.0
  O2-  O1  1  0.79264000  0.80148800  0.56658000  1.0
  O2-  O1  1  0.70736000  0.17333200  0.93342000  1.0
  O2-  O1  1  0.70736000  0.37333200  0.93342000  1.0
  O2-  O1  1  0.70736000  0.57333200  0.93342000  1.0
  O2-  O1  1  0.70736000  0.77333200  0.93342000  1.0
  O2-  O1  1  0.70736000  0.97333200  0.93342000  1.0
  O2-  O1  1  0.49256000  0.14147200  0.93342000  1.0
  O2-  O1  1  0.49256000  0.34147200  0.93342000  1.0
  O2-  O1  1  0.49256000  0.54147200  0.93342000  1.0
  O2-  O1  1  0.49256000  0.74147200  0.93342000  1.0
  O2-  O1  1  0.49256000  0.94147200  0.93342000  1.0
  O2-  O1  1  0.86666000  0.09851200  0.93342000  1.0
  O2-  O1  1  0.86666000  0.29851200  0.93342000  1.0
  O2-  O1  1  0.86666000  0.49851200  0.93342000  1.0
  O2-  O1  1  0.86666000  0.69851200  0.93342000  1.0
  O2-  O1  1  0.86666000  0.89851200  0.93342000  1.0
  O2-  O1  1  0.36666000  0.04147200  0.43342000  1.0
  O2-  O1  1  0.36666000  0.24147200  0.43342000  1.0
  O2-  O1  1  0.36666000  0.44147200  0.43342000  1.0
  O2-  O1  1  0.36666000  0.64147200  0.43342000  1.0
  O2-  O1  1  0.36666000  0.84147200  0.43342000  1.0
  O2-  O1  1  0.99256000  0.07333200  0.43342000  1.0
  O2-  O1  1  0.99256000  0.27333200  0.43342000  1.0
  O2-  O1  1  0.99256000  0.47333200  0.43342000  1.0
  O2-  O1  1  0.99256000  0.67333200  0.43342000  1.0
  O2-  O1  1  0.99256000  0.87333200  0.43342000  1.0
  O2-  O1  1  0.20736000  0.19851200  0.43342000  1.0
  O2-  O1  1  0.20736000  0.39851200  0.43342000  1.0
  O2-  O1  1  0.20736000  0.59851200  0.43342000  1.0
  O2-  O1  1  0.20736000  0.79851200  0.43342000  1.0
  O2-  O1  1  0.20736000  0.99851200  0.43342000  1.0
  O2-  O2  1  0.57667000  0.04617400  0.74999000  1.0
  O2-  O2  1  0.57667000  0.24617400  0.74999000  1.0
  O2-  O2  1  0.57667000  0.44617400  0.74999000  1.0
  O2-  O2  1  0.57667000  0.64617400  0.74999000  1.0
  O2-  O2  1  0.57667000  0.84617400  0.74999000  1.0
  O2-  O2  1  0.44247000  0.11533400  0.74999000  1.0
  O2-  O2  1  0.44247000  0.31533400  0.74999000  1.0
  O2-  O2  1  0.44247000  0.51533400  0.74999000  1.0
  O2-  O2  1  0.44247000  0.71533400  0.74999000  1.0
  O2-  O2  1  0.44247000  0.91533400  0.74999000  1.0
  O2-  O2  1  0.23087000  0.08849400  0.74999000  1.0
  O2-  O2  1  0.23087000  0.28849400  0.74999000  1.0
  O2-  O2  1  0.23087000  0.48849400  0.74999000  1.0
  O2-  O2  1  0.23087000  0.68849400  0.74999000  1.0
  O2-  O2  1  0.23087000  0.88849400  0.74999000  1.0
  O2-  O2  1  0.73087000  0.01533400  0.24999000  1.0
  O2-  O2  1  0.73087000  0.21533400  0.24999000  1.0
  O2-  O2  1  0.73087000  0.41533400  0.24999000  1.0
  O2-  O2  1  0.73087000  0.61533400  0.24999000  1.0
  O2-  O2  1  0.73087000  0.81533400  0.24999000  1.0
  O2-  O2  1  0.94247000  0.14617400  0.24999000  1.0
  O2-  O2  1  0.94247000  0.34617400  0.24999000  1.0
  O2-  O2  1  0.94247000  0.54617400  0.24999000  1.0
  O2-  O2  1  0.94247000  0.74617400  0.24999000  1.0
  O2-  O2  1  0.94247000  0.94617400  0.24999000  1.0
  O2-  O2  1  0.07667000  0.18849400  0.24999000  1.0
  O2-  O2  1  0.07667000  0.38849400  0.24999000  1.0
  O2-  O2  1  0.07667000  0.58849400  0.24999000  1.0
  O2-  O2  1  0.07667000  0.78849400  0.24999000  1.0
  O2-  O2  1  0.07667000  0.98849400  0.24999000  1.0
  O2-  O2  1  0.42333000  0.15382600  0.25001000  1.0
  O2-  O2  1  0.42333000  0.35382600  0.25001000  1.0
  O2-  O2  1  0.42333000  0.55382600  0.25001000  1.0
  O2-  O2  1  0.42333000  0.75382600  0.25001000  1.0
  O2-  O2  1  0.42333000  0.95382600  0.25001000  1.0
  O2-  O2  1  0.55753000  0.08466600  0.25001000  1.0
  O2-  O2  1  0.55753000  0.28466600  0.25001000  1.0
  O2-  O2  1  0.55753000  0.48466600  0.25001000  1.0
  O2-  O2  1  0.55753000  0.68466600  0.25001000  1.0
  O2-  O2  1  0.55753000  0.88466600  0.25001000  1.0
  O2-  O2  1  0.76913000  0.11150600  0.25001000  1.0
  O2-  O2  1  0.76913000  0.31150600  0.25001000  1.0
  O2-  O2  1  0.76913000  0.51150600  0.25001000  1.0
  O2-  O2  1  0.76913000  0.71150600  0.25001000  1.0
  O2-  O2  1  0.76913000  0.91150600  0.25001000  1.0
  O2-  O2  1  0.26913000  0.18466600  0.75001000  1.0
  O2-  O2  1  0.26913000  0.38466600  0.75001000  1.0
  O2-  O2  1  0.26913000  0.58466600  0.75001000  1.0
  O2-  O2  1  0.26913000  0.78466600  0.75001000  1.0
  O2-  O2  1  0.26913000  0.98466600  0.75001000  1.0
  O2-  O2  1  0.05753000  0.05382600  0.75001000  1.0
  O2-  O2  1  0.05753000  0.25382600  0.75001000  1.0
  O2-  O2  1  0.05753000  0.45382600  0.75001000  1.0
  O2-  O2  1  0.05753000  0.65382600  0.75001000  1.0
  O2-  O2  1  0.05753000  0.85382600  0.75001000  1.0
  O2-  O2  1  0.92333000  0.01150600  0.75001000  1.0
  O2-  O2  1  0.92333000  0.21150600  0.75001000  1.0
  O2-  O2  1  0.92333000  0.41150600  0.75001000  1.0
  O2-  O2  1  0.92333000  0.61150600  0.75001000  1.0
  O2-  O2  1  0.92333000  0.81150600  0.75001000  1.0
