# generated using pymatgen
data_LiCe(MoO4)2
_symmetry_space_group_name_H-M   'P 1'
_cell_length_a   21.17720000
_cell_length_b   13.82783968
_cell_length_c   10.58860000
_cell_angle_alpha   112.51172784
_cell_angle_beta   90.00000000
_cell_angle_gamma   67.48827216
_symmetry_Int_Tables_number   1
_chemical_formula_structural   LiCe(MoO4)2
_chemical_formula_sum   'Li16 Ce16 Mo32 O128'
_cell_volume   2606.84365701
_cell_formula_units_Z   16
loop_
 _symmetry_equiv_pos_site_id
 _symmetry_equiv_pos_as_xyz
  1  'x, y, z'
loop_
 _atom_type_symbol
 _atom_type_oxidation_number
  Li+  1.0
  Ce3+  3.0
  Mo6+  6.0
  O2-  -2.0
loop_
 _atom_site_type_symbol
 _atom_site_label
 _atom_site_symmetry_multiplicity
 _atom_site_fract_x
 _atom_site_fract_y
 _atom_site_fract_z
 _atom_site_occupancy
  Li+  Li0  1  0.15625000  0.37500000  0.31250000  1.0
  Li+  Li1  1  0.65625000  0.37500000  0.31250000  1.0
  Li+  Li2  1  0.40625000  0.87500000  0.31250000  1.0
  Li+  Li3  1  0.90625000  0.87500000  0.31250000  1.0
  Li+  Li4  1  0.40625000  0.87500000  0.81250000  1.0
  Li+  Li5  1  0.90625000  0.87500000  0.81250000  1.0
  Li+  Li6  1  0.40625000  0.37500000  0.81250000  1.0
  Li+  Li7  1  0.90625000  0.37500000  0.81250000  1.0
  Li+  Li8  1  0.09375000  0.62500000  0.68750000  1.0
  Li+  Li9  1  0.59375000  0.62500000  0.68750000  1.0
  Li+  Li10  1  0.09467039  0.12577484  0.68937661  1.0
  Li+  Li11  1  0.59375000  0.12500000  0.68750000  1.0
  Li+  Li12  1  0.09375000  0.12500000  0.18750000  1.0
  Li+  Li13  1  0.59976272  0.11965663  0.19050582  1.0
  Li+  Li14  1  0.34375000  0.62500000  0.18750000  1.0
  Li+  Li15  1  0.84375000  0.62500000  0.18750000  1.0
  Ce3+  Ce16  1  0.15625000  0.87500000  0.31250000  1.0
  Ce3+  Ce17  1  0.65625000  0.87500000  0.31250000  1.0
  Ce3+  Ce18  1  0.15625000  0.87500000  0.81250000  1.0
  Ce3+  Ce19  1  0.66064281  0.87731394  0.81574377  1.0
  Ce3+  Ce20  1  0.15625000  0.37500000  0.81250000  1.0
  Ce3+  Ce21  1  0.65625000  0.37500000  0.81250000  1.0
  Ce3+  Ce22  1  0.40625000  0.37500000  0.31250000  1.0
  Ce3+  Ce23  1  0.90625000  0.37500000  0.31250000  1.0
  Ce3+  Ce24  1  0.09375000  0.62500000  0.18750000  1.0
  Ce3+  Ce25  1  0.59375000  0.62500000  0.18750000  1.0
  Ce3+  Ce26  1  0.34375000  0.62500000  0.68750000  1.0
  Ce3+  Ce27  1  0.84375000  0.62500000  0.68750000  1.0
  Ce3+  Ce28  1  0.34375000  0.12500000  0.68750000  1.0
  Ce3+  Ce29  1  0.84375000  0.12500000  0.68750000  1.0
  Ce3+  Ce30  1  0.34375000  0.12500000  0.18750000  1.0
  Ce3+  Ce31  1  0.84375000  0.12500000  0.18750000  1.0
  Mo6+  Mo32  1  0.02645188  0.87576624  0.56287443  1.0
  Mo6+  Mo33  1  0.53125000  0.87500000  0.56250000  1.0
  Mo6+  Mo34  1  0.03125000  0.37500000  0.56250000  1.0
  Mo6+  Mo35  1  0.53228994  0.37236210  0.55715721  1.0
  Mo6+  Mo36  1  0.03125000  0.87500000  0.06250000  1.0
  Mo6+  Mo37  1  0.53125000  0.87500000  0.06250000  1.0
  Mo6+  Mo38  1  0.03125000  0.37500000  0.06250000  1.0
  Mo6+  Mo39  1  0.53463675  0.37270586  0.05894426  1.0
  Mo6+  Mo40  1  0.28125000  0.87500000  0.56250000  1.0
  Mo6+  Mo41  1  0.78125000  0.87500000  0.56250000  1.0
  Mo6+  Mo42  1  0.28125000  0.37500000  0.56250000  1.0
  Mo6+  Mo43  1  0.78356839  0.37710883  0.56362395  1.0
  Mo6+  Mo44  1  0.28125000  0.87500000  0.06250000  1.0
  Mo6+  Mo45  1  0.78452919  0.87750294  0.05912415  1.0
  Mo6+  Mo46  1  0.28067866  0.37319606  0.06732006  1.0
  Mo6+  Mo47  1  0.78125000  0.37500000  0.06250000  1.0
  Mo6+  Mo48  1  0.22011629  0.61938270  0.43347336  1.0
  Mo6+  Mo49  1  0.71748269  0.62603283  0.43937234  1.0
  Mo6+  Mo50  1  0.21875000  0.12500000  0.43750000  1.0
  Mo6+  Mo51  1  0.71875000  0.12500000  0.43750000  1.0
  Mo6+  Mo52  1  0.21875000  0.62500000  0.93750000  1.0
  Mo6+  Mo53  1  0.72037670  0.62958677  0.93339887  1.0
  Mo6+  Mo54  1  0.21875000  0.12500000  0.93750000  1.0
  Mo6+  Mo55  1  0.71875000  0.12500000  0.93750000  1.0
  Mo6+  Mo56  1  0.47117058  0.62699386  0.43872856  1.0
  Mo6+  Mo57  1  0.96875000  0.62500000  0.43750000  1.0
  Mo6+  Mo58  1  0.46875000  0.12500000  0.43750000  1.0
  Mo6+  Mo59  1  0.96875000  0.12500000  0.43750000  1.0
  Mo6+  Mo60  1  0.46875000  0.62500000  0.93750000  1.0
  Mo6+  Mo61  1  0.96875000  0.62500000  0.93750000  1.0
  Mo6+  Mo62  1  0.46875000  0.12500000  0.93750000  1.0
  Mo6+  Mo63  1  0.97053838  0.12319873  0.94265488  1.0
  O2-  O64  1  0.01925598  0.79487153  0.40252089  1.0
  O2-  O65  1  0.51605000  0.79150000  0.40030000  1.0
  O2-  O66  1  0.01605000  0.29150000  0.40030000  1.0
  O2-  O67  1  0.51605000  0.29150000  0.40030000  1.0
  O2-  O68  1  0.01605000  0.79150000  0.90030000  1.0
  O2-  O69  1  0.51605000  0.79150000  0.90030000  1.0
  O2-  O70  1  0.01396974  0.29266137  0.89744393  1.0
  O2-  O71  1  0.51746970  0.29057997  0.90114068  1.0
  O2-  O72  1  0.26605000  0.79150000  0.40030000  1.0
  O2-  O73  1  0.76605000  0.79150000  0.40030000  1.0
  O2-  O74  1  0.26605000  0.29150000  0.40030000  1.0
  O2-  O75  1  0.76605000  0.29150000  0.40030000  1.0
  O2-  O76  1  0.26605000  0.79150000  0.90030000  1.0
  O2-  O77  1  0.76605000  0.79150000  0.90030000  1.0
  O2-  O78  1  0.26246441  0.29005215  0.90016521  1.0
  O2-  O79  1  0.76605000  0.29150000  0.90030000  1.0
  O2-  O80  1  0.08820000  0.79150000  0.64120000  1.0
  O2-  O81  1  0.58820000  0.79150000  0.64120000  1.0
  O2-  O82  1  0.08820000  0.29150000  0.64120000  1.0
  O2-  O83  1  0.58820000  0.29150000  0.64120000  1.0
  O2-  O84  1  0.08820000  0.79150000  0.14120000  1.0
  O2-  O85  1  0.58820000  0.79150000  0.14120000  1.0
  O2-  O86  1  0.08820000  0.29150000  0.14120000  1.0
  O2-  O87  1  0.58472466  0.28973200  0.14435064  1.0
  O2-  O88  1  0.33820000  0.79150000  0.64120000  1.0
  O2-  O89  1  0.83820000  0.79150000  0.64120000  1.0
  O2-  O90  1  0.33457630  0.29220027  0.64436555  1.0
  O2-  O91  1  0.83820000  0.29150000  0.64120000  1.0
  O2-  O92  1  0.33820000  0.79150000  0.14120000  1.0
  O2-  O93  1  0.83834177  0.79090825  0.14002733  1.0
  O2-  O94  1  0.33820000  0.29150000  0.14120000  1.0
  O2-  O95  1  0.83820000  0.29150000  0.14120000  1.0
  O2-  O96  1  0.04828213  0.54208438  0.32347499  1.0
  O2-  O97  1  0.54985000  0.54150000  0.32360000  1.0
  O2-  O98  1  0.04985000  0.04150000  0.32360000  1.0
  O2-  O99  1  0.54985000  0.04150000  0.32360000  1.0
  O2-  O100  1  0.04985000  0.54150000  0.82360000  1.0
  O2-  O101  1  0.54833821  0.53532081  0.82318108  1.0
  O2-  O102  1  0.04985000  0.04150000  0.82360000  1.0
  O2-  O103  1  0.54985000  0.04150000  0.82360000  1.0
  O2-  O104  1  0.29985000  0.54150000  0.32360000  1.0
  O2-  O105  1  0.79985000  0.54150000  0.32360000  1.0
  O2-  O106  1  0.30430256  0.04467724  0.32688598  1.0
  O2-  O107  1  0.79770849  0.04466401  0.32149807  1.0
  O2-  O108  1  0.29985000  0.54150000  0.82360000  1.0
  O2-  O109  1  0.79985000  0.54150000  0.82360000  1.0
  O2-  O110  1  0.29985000  0.04150000  0.82360000  1.0
  O2-  O111  1  0.79985000  0.04150000  0.82360000  1.0
  O2-  O112  1  0.17940000  0.54150000  0.46790000  1.0
  O2-  O113  1  0.68037009  0.54285597  0.46722212  1.0
  O2-  O114  1  0.17940000  0.04150000  0.46790000  1.0
  O2-  O115  1  0.67966171  0.04508489  0.46686500  1.0
  O2-  O116  1  0.17940000  0.54150000  0.96790000  1.0
  O2-  O117  1  0.67940000  0.54150000  0.96790000  1.0
  O2-  O118  1  0.17940000  0.04150000  0.96790000  1.0
  O2-  O119  1  0.68038154  0.04138885  0.97086651  1.0
  O2-  O120  1  0.42940000  0.54150000  0.46790000  1.0
  O2-  O121  1  0.92940000  0.54150000  0.46790000  1.0
  O2-  O122  1  0.42519883  0.03857338  0.46763973  1.0
  O2-  O123  1  0.92940000  0.04150000  0.46790000  1.0
  O2-  O124  1  0.42940000  0.54150000  0.96790000  1.0
  O2-  O125  1  0.92940000  0.54150000  0.96790000  1.0
  O2-  O126  1  0.42940000  0.04150000  0.96790000  1.0
  O2-  O127  1  0.92940000  0.04150000  0.96790000  1.0
  O2-  O128  1  0.23831556  0.70655550  0.59778193  1.0
  O2-  O129  1  0.73395000  0.70850000  0.59970000  1.0
  O2-  O130  1  0.23395000  0.20850000  0.59970000  1.0
  O2-  O131  1  0.73232195  0.20688103  0.60355833  1.0
  O2-  O132  1  0.23395000  0.70850000  0.09970000  1.0
  O2-  O133  1  0.73395000  0.70850000  0.09970000  1.0
  O2-  O134  1  0.23395000  0.20850000  0.09970000  1.0
  O2-  O135  1  0.73395000  0.20850000  0.09970000  1.0
  O2-  O136  1  0.48057984  0.70748243  0.60251876  1.0
  O2-  O137  1  0.98395000  0.70850000  0.59970000  1.0
  O2-  O138  1  0.48395000  0.20850000  0.59970000  1.0
  O2-  O139  1  0.98395000  0.20850000  0.59970000  1.0
  O2-  O140  1  0.48395000  0.70850000  0.09970000  1.0
  O2-  O141  1  0.98267055  0.70555095  0.10049819  1.0
  O2-  O142  1  0.48145752  0.21184366  0.09967224  1.0
  O2-  O143  1  0.98442153  0.20792780  0.10015753  1.0
  O2-  O144  1  0.16180000  0.70850000  0.35880000  1.0
  O2-  O145  1  0.66180000  0.70850000  0.35880000  1.0
  O2-  O146  1  0.16180000  0.20850000  0.35880000  1.0
  O2-  O147  1  0.66180000  0.20850000  0.35880000  1.0
  O2-  O148  1  0.16180000  0.70850000  0.85880000  1.0
  O2-  O149  1  0.66180000  0.70850000  0.85880000  1.0
  O2-  O150  1  0.15821680  0.20557879  0.86064370  1.0
  O2-  O151  1  0.66180000  0.20850000  0.85880000  1.0
  O2-  O152  1  0.41180000  0.70850000  0.35880000  1.0
  O2-  O153  1  0.91180000  0.70850000  0.35880000  1.0
  O2-  O154  1  0.41180000  0.20850000  0.35880000  1.0
  O2-  O155  1  0.91180000  0.20850000  0.35880000  1.0
  O2-  O156  1  0.41180000  0.70850000  0.85880000  1.0
  O2-  O157  1  0.91180000  0.70850000  0.85880000  1.0
  O2-  O158  1  0.41180000  0.20850000  0.85880000  1.0
  O2-  O159  1  0.91180000  0.20850000  0.85880000  1.0
  O2-  O160  1  0.19889349  0.95566305  0.67496281  1.0
  O2-  O161  1  0.70015000  0.95850000  0.67640000  1.0
  O2-  O162  1  0.19991054  0.45747793  0.67851602  1.0
  O2-  O163  1  0.70015000  0.45850000  0.67640000  1.0
  O2-  O164  1  0.20015000  0.95850000  0.17640000  1.0
  O2-  O165  1  0.70302984  0.96129533  0.17579469  1.0
  O2-  O166  1  0.20015000  0.45850000  0.17640000  1.0
  O2-  O167  1  0.70015000  0.45850000  0.17640000  1.0
  O2-  O168  1  0.45039486  0.95695014  0.67781400  1.0
  O2-  O169  1  0.95015000  0.95850000  0.67640000  1.0
  O2-  O170  1  0.45015000  0.45850000  0.67640000  1.0
  O2-  O171  1  0.95015000  0.45850000  0.67640000  1.0
  O2-  O172  1  0.45015000  0.95850000  0.17640000  1.0
  O2-  O173  1  0.95015000  0.95850000  0.17640000  1.0
  O2-  O174  1  0.45038768  0.45829553  0.17443923  1.0
  O2-  O175  1  0.95153863  0.45665483  0.18057858  1.0
  O2-  O176  1  0.07060000  0.95850000  0.53210000  1.0
  O2-  O177  1  0.57060000  0.95850000  0.53210000  1.0
  O2-  O178  1  0.07060000  0.45850000  0.53210000  1.0
  O2-  O179  1  0.56866100  0.45498012  0.53326086  1.0
  O2-  O180  1  0.06988198  0.95455628  0.03181072  1.0
  O2-  O181  1  0.57060000  0.95850000  0.03210000  1.0
  O2-  O182  1  0.07060000  0.45850000  0.03210000  1.0
  O2-  O183  1  0.56731667  0.45625607  0.03207376  1.0
  O2-  O184  1  0.32569855  0.95943107  0.53145264  1.0
  O2-  O185  1  0.82450989  0.95902830  0.53745479  1.0
  O2-  O186  1  0.32060000  0.45850000  0.53210000  1.0
  O2-  O187  1  0.82060000  0.45850000  0.53210000  1.0
  O2-  O188  1  0.32060000  0.95850000  0.03210000  1.0
  O2-  O189  1  0.82060000  0.95850000  0.03210000  1.0
  O2-  O190  1  0.32060000  0.45850000  0.03210000  1.0
  O2-  O191  1  0.82032215  0.45953926  0.03168428  1.0
