# generated using pymatgen
data_LiCe(MoO4)2
_symmetry_space_group_name_H-M   'P 1'
_cell_length_a   21.17720000
_cell_length_b   10.58860000
_cell_length_c   13.82783968
_cell_angle_alpha   112.51172784
_cell_angle_beta   112.51172784
_cell_angle_gamma   90.00000000
_symmetry_Int_Tables_number   1
_chemical_formula_structural   LiCe(MoO4)2
_chemical_formula_sum   'Li16 Ce16 Mo32 O128'
_cell_volume   2606.84365701
_cell_formula_units_Z   16
loop_
 _symmetry_equiv_pos_site_id
 _symmetry_equiv_pos_as_xyz
  1  'x, y, z'
loop_
 _atom_type_symbol
 _atom_type_oxidation_number
  Li+  1.0
  Ce3+  3.0
  Mo6+  6.0
  O2-  -2.0
loop_
 _atom_site_type_symbol
 _atom_site_label
 _atom_site_symmetry_multiplicity
 _atom_site_fract_x
 _atom_site_fract_y
 _atom_site_fract_z
 _atom_site_occupancy
  Li+  Li0  1  0.15625000  0.43750000  0.62500000  1.0
  Li+  Li0  1  0.65625000  0.43750000  0.62500000  1.0
  Li+  Li1  1  0.40625000  0.43750000  0.12500000  1.0
  Li+  Li1  1  0.90625000  0.43750000  0.12500000  1.0
  Li+  Li2  1  0.40625000  0.93750000  0.12500000  1.0
  Li+  Li2  1  0.90625000  0.93750000  0.12500000  1.0
  Li+  Li3  1  0.40625000  0.93750000  0.62500000  1.0
  Li+  Li3  1  0.90625000  0.93750000  0.62500000  1.0
  Li+  Li4  1  0.09375000  0.06250000  0.37500000  1.0
  Li+  Li4  1  0.59375000  0.06250000  0.37500000  1.0
  Li+  Li5  1  0.09375000  0.06250000  0.87500000  1.0
  Li+  Li5  1  0.59375000  0.06250000  0.87500000  1.0
  Li+  Li6  1  0.09375000  0.56250000  0.87500000  1.0
  Li+  Li6  1  0.59375000  0.56250000  0.87500000  1.0
  Li+  Li7  1  0.34375000  0.56250000  0.37500000  1.0
  Li+  Li7  1  0.84375000  0.56250000  0.37500000  1.0
  Ce3+  Ce8  1  0.15625000  0.43750000  0.12500000  1.0
  Ce3+  Ce8  1  0.65625000  0.43750000  0.12500000  1.0
  Ce3+  Ce9  1  0.15625000  0.93750000  0.12500000  1.0
  Ce3+  Ce9  1  0.65625000  0.93750000  0.12500000  1.0
  Ce3+  Ce10  1  0.15625000  0.93750000  0.62500000  1.0
  Ce3+  Ce10  1  0.65625000  0.93750000  0.62500000  1.0
  Ce3+  Ce11  1  0.40625000  0.43750000  0.62500000  1.0
  Ce3+  Ce11  1  0.90625000  0.43750000  0.62500000  1.0
  Ce3+  Ce12  1  0.09375000  0.56250000  0.37500000  1.0
  Ce3+  Ce12  1  0.59375000  0.56250000  0.37500000  1.0
  Ce3+  Ce13  1  0.34375000  0.06250000  0.37500000  1.0
  Ce3+  Ce13  1  0.84375000  0.06250000  0.37500000  1.0
  Ce3+  Ce14  1  0.34375000  0.06250000  0.87500000  1.0
  Ce3+  Ce14  1  0.84375000  0.06250000  0.87500000  1.0
  Ce3+  Ce15  1  0.34375000  0.56250000  0.87500000  1.0
  Ce3+  Ce15  1  0.84375000  0.56250000  0.87500000  1.0
  Mo6+  Mo1  1  0.03125000  0.18750000  0.12500000  1.0
  Mo6+  Mo1  1  0.53125000  0.18750000  0.12500000  1.0
  Mo6+  Mo1  1  0.03125000  0.18750000  0.62500000  1.0
  Mo6+  Mo1  1  0.53125000  0.18750000  0.62500000  1.0
  Mo6+  Mo1  1  0.03125000  0.68750000  0.12500000  1.0
  Mo6+  Mo1  1  0.53125000  0.68750000  0.12500000  1.0
  Mo6+  Mo1  1  0.03125000  0.68750000  0.62500000  1.0
  Mo6+  Mo1  1  0.53125000  0.68750000  0.62500000  1.0
  Mo6+  Mo1  1  0.28125000  0.18750000  0.12500000  1.0
  Mo6+  Mo1  1  0.78125000  0.18750000  0.12500000  1.0
  Mo6+  Mo1  1  0.28125000  0.18750000  0.62500000  1.0
  Mo6+  Mo1  1  0.78125000  0.18750000  0.62500000  1.0
  Mo6+  Mo1  1  0.28125000  0.68750000  0.12500000  1.0
  Mo6+  Mo1  1  0.78125000  0.68750000  0.12500000  1.0
  Mo6+  Mo1  1  0.28125000  0.68750000  0.62500000  1.0
  Mo6+  Mo1  1  0.78125000  0.68750000  0.62500000  1.0
  Mo6+  Mo1  1  0.21875000  0.31250000  0.37500000  1.0
  Mo6+  Mo1  1  0.71875000  0.31250000  0.37500000  1.0
  Mo6+  Mo1  1  0.21875000  0.31250000  0.87500000  1.0
  Mo6+  Mo1  1  0.71875000  0.31250000  0.87500000  1.0
  Mo6+  Mo1  1  0.21875000  0.81250000  0.37500000  1.0
  Mo6+  Mo1  1  0.71875000  0.81250000  0.37500000  1.0
  Mo6+  Mo1  1  0.21875000  0.81250000  0.87500000  1.0
  Mo6+  Mo1  1  0.71875000  0.81250000  0.87500000  1.0
  Mo6+  Mo1  1  0.46875000  0.31250000  0.37500000  1.0
  Mo6+  Mo1  1  0.96875000  0.31250000  0.37500000  1.0
  Mo6+  Mo1  1  0.46875000  0.31250000  0.87500000  1.0
  Mo6+  Mo1  1  0.96875000  0.31250000  0.87500000  1.0
  Mo6+  Mo1  1  0.46875000  0.81250000  0.37500000  1.0
  Mo6+  Mo1  1  0.96875000  0.81250000  0.37500000  1.0
  Mo6+  Mo1  1  0.46875000  0.81250000  0.87500000  1.0
  Mo6+  Mo1  1  0.96875000  0.81250000  0.87500000  1.0
  O2-  O1  1  0.01605000  0.34970000  0.20850000  1.0
  O2-  O1  1  0.51605000  0.34970000  0.20850000  1.0
  O2-  O1  1  0.01605000  0.34970000  0.70850000  1.0
  O2-  O1  1  0.51605000  0.34970000  0.70850000  1.0
  O2-  O1  1  0.01605000  0.84970000  0.20850000  1.0
  O2-  O1  1  0.51605000  0.84970000  0.20850000  1.0
  O2-  O1  1  0.01605000  0.84970000  0.70850000  1.0
  O2-  O1  1  0.51605000  0.84970000  0.70850000  1.0
  O2-  O1  1  0.26605000  0.34970000  0.20850000  1.0
  O2-  O1  1  0.76605000  0.34970000  0.20850000  1.0
  O2-  O1  1  0.26605000  0.34970000  0.70850000  1.0
  O2-  O1  1  0.76605000  0.34970000  0.70850000  1.0
  O2-  O1  1  0.26605000  0.84970000  0.20850000  1.0
  O2-  O1  1  0.76605000  0.84970000  0.20850000  1.0
  O2-  O1  1  0.26605000  0.84970000  0.70850000  1.0
  O2-  O1  1  0.76605000  0.84970000  0.70850000  1.0
  O2-  O1  1  0.08820000  0.10880000  0.20850000  1.0
  O2-  O1  1  0.58820000  0.10880000  0.20850000  1.0
  O2-  O1  1  0.08820000  0.10880000  0.70850000  1.0
  O2-  O1  1  0.58820000  0.10880000  0.70850000  1.0
  O2-  O1  1  0.08820000  0.60880000  0.20850000  1.0
  O2-  O1  1  0.58820000  0.60880000  0.20850000  1.0
  O2-  O1  1  0.08820000  0.60880000  0.70850000  1.0
  O2-  O1  1  0.58820000  0.60880000  0.70850000  1.0
  O2-  O1  1  0.33820000  0.10880000  0.20850000  1.0
  O2-  O1  1  0.83820000  0.10880000  0.20850000  1.0
  O2-  O1  1  0.33820000  0.10880000  0.70850000  1.0
  O2-  O1  1  0.83820000  0.10880000  0.70850000  1.0
  O2-  O1  1  0.33820000  0.60880000  0.20850000  1.0
  O2-  O1  1  0.83820000  0.60880000  0.20850000  1.0
  O2-  O1  1  0.33820000  0.60880000  0.70850000  1.0
  O2-  O1  1  0.83820000  0.60880000  0.70850000  1.0
  O2-  O1  1  0.04985000  0.42640000  0.45850000  1.0
  O2-  O1  1  0.54985000  0.42640000  0.45850000  1.0
  O2-  O1  1  0.04985000  0.42640000  0.95850000  1.0
  O2-  O1  1  0.54985000  0.42640000  0.95850000  1.0
  O2-  O1  1  0.04985000  0.92640000  0.45850000  1.0
  O2-  O1  1  0.54985000  0.92640000  0.45850000  1.0
  O2-  O1  1  0.04985000  0.92640000  0.95850000  1.0
  O2-  O1  1  0.54985000  0.92640000  0.95850000  1.0
  O2-  O1  1  0.29985000  0.42640000  0.45850000  1.0
  O2-  O1  1  0.79985000  0.42640000  0.45850000  1.0
  O2-  O1  1  0.29985000  0.42640000  0.95850000  1.0
  O2-  O1  1  0.79985000  0.42640000  0.95850000  1.0
  O2-  O1  1  0.29985000  0.92640000  0.45850000  1.0
  O2-  O1  1  0.79985000  0.92640000  0.45850000  1.0
  O2-  O1  1  0.29985000  0.92640000  0.95850000  1.0
  O2-  O1  1  0.79985000  0.92640000  0.95850000  1.0
  O2-  O1  1  0.17940000  0.28210000  0.45850000  1.0
  O2-  O1  1  0.67940000  0.28210000  0.45850000  1.0
  O2-  O1  1  0.17940000  0.28210000  0.95850000  1.0
  O2-  O1  1  0.67940000  0.28210000  0.95850000  1.0
  O2-  O1  1  0.17940000  0.78210000  0.45850000  1.0
  O2-  O1  1  0.67940000  0.78210000  0.45850000  1.0
  O2-  O1  1  0.17940000  0.78210000  0.95850000  1.0
  O2-  O1  1  0.67940000  0.78210000  0.95850000  1.0
  O2-  O1  1  0.42940000  0.28210000  0.45850000  1.0
  O2-  O1  1  0.92940000  0.28210000  0.45850000  1.0
  O2-  O1  1  0.42940000  0.28210000  0.95850000  1.0
  O2-  O1  1  0.92940000  0.28210000  0.95850000  1.0
  O2-  O1  1  0.42940000  0.78210000  0.45850000  1.0
  O2-  O1  1  0.92940000  0.78210000  0.45850000  1.0
  O2-  O1  1  0.42940000  0.78210000  0.95850000  1.0
  O2-  O1  1  0.92940000  0.78210000  0.95850000  1.0
  O2-  O1  1  0.23395000  0.15030000  0.29150000  1.0
  O2-  O1  1  0.73395000  0.15030000  0.29150000  1.0
  O2-  O1  1  0.23395000  0.15030000  0.79150000  1.0
  O2-  O1  1  0.73395000  0.15030000  0.79150000  1.0
  O2-  O1  1  0.23395000  0.65030000  0.29150000  1.0
  O2-  O1  1  0.73395000  0.65030000  0.29150000  1.0
  O2-  O1  1  0.23395000  0.65030000  0.79150000  1.0
  O2-  O1  1  0.73395000  0.65030000  0.79150000  1.0
  O2-  O1  1  0.48395000  0.15030000  0.29150000  1.0
  O2-  O1  1  0.98395000  0.15030000  0.29150000  1.0
  O2-  O1  1  0.48395000  0.15030000  0.79150000  1.0
  O2-  O1  1  0.98395000  0.15030000  0.79150000  1.0
  O2-  O1  1  0.48395000  0.65030000  0.29150000  1.0
  O2-  O1  1  0.98395000  0.65030000  0.29150000  1.0
  O2-  O1  1  0.48395000  0.65030000  0.79150000  1.0
  O2-  O1  1  0.98395000  0.65030000  0.79150000  1.0
  O2-  O1  1  0.16180000  0.39120000  0.29150000  1.0
  O2-  O1  1  0.66180000  0.39120000  0.29150000  1.0
  O2-  O1  1  0.16180000  0.39120000  0.79150000  1.0
  O2-  O1  1  0.66180000  0.39120000  0.79150000  1.0
  O2-  O1  1  0.16180000  0.89120000  0.29150000  1.0
  O2-  O1  1  0.66180000  0.89120000  0.29150000  1.0
  O2-  O1  1  0.16180000  0.89120000  0.79150000  1.0
  O2-  O1  1  0.66180000  0.89120000  0.79150000  1.0
  O2-  O1  1  0.41180000  0.39120000  0.29150000  1.0
  O2-  O1  1  0.91180000  0.39120000  0.29150000  1.0
  O2-  O1  1  0.41180000  0.39120000  0.79150000  1.0
  O2-  O1  1  0.91180000  0.39120000  0.79150000  1.0
  O2-  O1  1  0.41180000  0.89120000  0.29150000  1.0
  O2-  O1  1  0.91180000  0.89120000  0.29150000  1.0
  O2-  O1  1  0.41180000  0.89120000  0.79150000  1.0
  O2-  O1  1  0.91180000  0.89120000  0.79150000  1.0
  O2-  O1  1  0.20015000  0.07360000  0.04150000  1.0
  O2-  O1  1  0.70015000  0.07360000  0.04150000  1.0
  O2-  O1  1  0.20015000  0.07360000  0.54150000  1.0
  O2-  O1  1  0.70015000  0.07360000  0.54150000  1.0
  O2-  O1  1  0.20015000  0.57360000  0.04150000  1.0
  O2-  O1  1  0.70015000  0.57360000  0.04150000  1.0
  O2-  O1  1  0.20015000  0.57360000  0.54150000  1.0
  O2-  O1  1  0.70015000  0.57360000  0.54150000  1.0
  O2-  O1  1  0.45015000  0.07360000  0.04150000  1.0
  O2-  O1  1  0.95015000  0.07360000  0.04150000  1.0
  O2-  O1  1  0.45015000  0.07360000  0.54150000  1.0
  O2-  O1  1  0.95015000  0.07360000  0.54150000  1.0
  O2-  O1  1  0.45015000  0.57360000  0.04150000  1.0
  O2-  O1  1  0.95015000  0.57360000  0.04150000  1.0
  O2-  O1  1  0.45015000  0.57360000  0.54150000  1.0
  O2-  O1  1  0.95015000  0.57360000  0.54150000  1.0
  O2-  O1  1  0.07060000  0.21790000  0.04150000  1.0
  O2-  O1  1  0.57060000  0.21790000  0.04150000  1.0
  O2-  O1  1  0.07060000  0.21790000  0.54150000  1.0
  O2-  O1  1  0.57060000  0.21790000  0.54150000  1.0
  O2-  O1  1  0.07060000  0.71790000  0.04150000  1.0
  O2-  O1  1  0.57060000  0.71790000  0.04150000  1.0
  O2-  O1  1  0.07060000  0.71790000  0.54150000  1.0
  O2-  O1  1  0.57060000  0.71790000  0.54150000  1.0
  O2-  O1  1  0.32060000  0.21790000  0.04150000  1.0
  O2-  O1  1  0.82060000  0.21790000  0.04150000  1.0
  O2-  O1  1  0.32060000  0.21790000  0.54150000  1.0
  O2-  O1  1  0.82060000  0.21790000  0.54150000  1.0
  O2-  O1  1  0.32060000  0.71790000  0.04150000  1.0
  O2-  O1  1  0.82060000  0.71790000  0.04150000  1.0
  O2-  O1  1  0.32060000  0.71790000  0.54150000  1.0
  O2-  O1  1  0.82060000  0.71790000  0.54150000  1.0
