# generated using pymatgen
data_Li5La3(BiO6)2
_symmetry_space_group_name_H-M   'P 1'
_cell_length_a   22.62959022
_cell_length_b   11.31479511
_cell_length_c   11.31479511
_cell_angle_alpha   109.47122063
_cell_angle_beta   109.47122063
_cell_angle_gamma   109.47122063
_symmetry_Int_Tables_number   1
_chemical_formula_structural   Li5La3(BiO6)2
_chemical_formula_sum   'Li40 La24 Bi16 O96'
_cell_volume   2230.22247075
_cell_formula_units_Z   8
loop_
 _symmetry_equiv_pos_site_id
 _symmetry_equiv_pos_as_xyz
  1  'x, y, z'
loop_
 _atom_type_symbol
 _atom_type_oxidation_number
  Li+  1.0
  La3+  3.0
  Bi5+  5.0
  O2-  -2.0
loop_
 _atom_site_type_symbol
 _atom_site_label
 _atom_site_symmetry_multiplicity
 _atom_site_fract_x
 _atom_site_fract_y
 _atom_site_fract_z
 _atom_site_occupancy
  Li+  Li0  1  0.02525000  0.27590000  0.06060000  1.0
  Li+  Li0  1  0.52525000  0.27590000  0.06060000  1.0
  Li+  Li1  1  0.03030000  0.55050000  0.77590000  1.0
  Li+  Li1  1  0.53030000  0.55050000  0.77590000  1.0
  Li+  Li2  1  0.25505000  0.22540000  0.44950000  1.0
  Li+  Li2  1  0.75505000  0.22540000  0.44950000  1.0
  Li+  Li3  1  0.38795000  0.56060000  0.05050000  1.0
  Li+  Li3  1  0.88795000  0.56060000  0.05050000  1.0
  Li+  Li4  1  0.24495000  0.77460000  0.55050000  1.0
  Li+  Li4  1  0.74495000  0.77460000  0.55050000  1.0
  Li+  Li5  1  0.24495000  0.21530000  0.93940000  1.0
  Li+  Li5  1  0.74495000  0.21530000  0.93940000  1.0
  Li+  Li6  1  0.27525000  0.06060000  0.27590000  1.0
  Li+  Li6  1  0.77525000  0.06060000  0.27590000  1.0
  Li+  Li7  1  0.36205000  0.94950000  0.43940000  1.0
  Li+  Li7  1  0.86205000  0.94950000  0.43940000  1.0
  Li+  Li8  1  0.14235000  0.56060000  0.51010000  1.0
  Li+  Li8  1  0.64235000  0.56060000  0.51010000  1.0
  Li+  Li9  1  0.36270000  0.27590000  0.21530000  1.0
  Li+  Li9  1  0.86270000  0.27590000  0.21530000  1.0
  Li+  Li10  1  0.43750000  0.75000000  0.12500000  1.0
  Li+  Li10  1  0.93750000  0.75000000  0.12500000  1.0
  Li+  Li11  1  0.18750000  0.12500000  0.75000000  1.0
  Li+  Li11  1  0.68750000  0.12500000  0.75000000  1.0
  Li+  Li12  1  0.37500000  0.87500000  0.62500000  1.0
  Li+  Li12  1  0.87500000  0.87500000  0.62500000  1.0
  Li+  Li13  1  0.12500000  0.62500000  0.87500000  1.0
  Li+  Li13  1  0.62500000  0.62500000  0.87500000  1.0
  Li+  Li14  1  0.06250000  0.25000000  0.87500000  1.0
  Li+  Li14  1  0.56250000  0.25000000  0.87500000  1.0
  Li+  Li15  1  0.18750000  0.75000000  0.62500000  1.0
  Li+  Li15  1  0.68750000  0.75000000  0.62500000  1.0
  Li+  Li16  1  0.43750000  0.62500000  0.75000000  1.0
  Li+  Li16  1  0.93750000  0.62500000  0.75000000  1.0
  Li+  Li17  1  0.31250000  0.87500000  0.25000000  1.0
  Li+  Li17  1  0.81250000  0.87500000  0.25000000  1.0
  Li+  Li18  1  0.12500000  0.12500000  0.37500000  1.0
  Li+  Li18  1  0.62500000  0.12500000  0.37500000  1.0
  Li+  Li19  1  0.37500000  0.37500000  0.12500000  1.0
  Li+  Li19  1  0.87500000  0.37500000  0.12500000  1.0
  La3+  La1  1  0.37500000  0.62500000  0.37500000  1.0
  La3+  La1  1  0.87500000  0.62500000  0.37500000  1.0
  La3+  La1  1  0.12500000  0.87500000  0.12500000  1.0
  La3+  La1  1  0.62500000  0.87500000  0.12500000  1.0
  La3+  La1  1  0.06250000  0.75000000  0.37500000  1.0
  La3+  La1  1  0.56250000  0.75000000  0.37500000  1.0
  La3+  La1  1  0.18750000  0.25000000  0.12500000  1.0
  La3+  La1  1  0.68750000  0.25000000  0.12500000  1.0
  La3+  La1  1  0.18750000  0.62500000  0.25000000  1.0
  La3+  La1  1  0.68750000  0.62500000  0.25000000  1.0
  La3+  La1  1  0.06250000  0.87500000  0.75000000  1.0
  La3+  La1  1  0.56250000  0.87500000  0.75000000  1.0
  La3+  La1  1  0.12500000  0.37500000  0.62500000  1.0
  La3+  La1  1  0.62500000  0.37500000  0.62500000  1.0
  La3+  La1  1  0.37500000  0.12500000  0.87500000  1.0
  La3+  La1  1  0.87500000  0.12500000  0.87500000  1.0
  La3+  La1  1  0.43750000  0.25000000  0.62500000  1.0
  La3+  La1  1  0.93750000  0.25000000  0.62500000  1.0
  La3+  La1  1  0.31250000  0.75000000  0.87500000  1.0
  La3+  La1  1  0.81250000  0.75000000  0.87500000  1.0
  La3+  La1  1  0.31250000  0.37500000  0.75000000  1.0
  La3+  La1  1  0.81250000  0.37500000  0.75000000  1.0
  La3+  La1  1  0.43750000  0.12500000  0.25000000  1.0
  La3+  La1  1  0.93750000  0.12500000  0.25000000  1.0
  Bi5+  Bi1  1  0.00000000  0.00000000  0.50000000  1.0
  Bi5+  Bi1  1  0.50000000  0.00000000  0.50000000  1.0
  Bi5+  Bi1  1  0.25000000  0.50000000  0.50000000  1.0
  Bi5+  Bi1  1  0.75000000  0.50000000  0.50000000  1.0
  Bi5+  Bi1  1  0.00000000  0.50000000  0.00000000  1.0
  Bi5+  Bi1  1  0.50000000  0.50000000  0.00000000  1.0
  Bi5+  Bi1  1  0.25000000  0.00000000  0.00000000  1.0
  Bi5+  Bi1  1  0.75000000  0.00000000  0.00000000  1.0
  Bi5+  Bi1  1  0.00000000  0.50000000  0.50000000  1.0
  Bi5+  Bi1  1  0.50000000  0.50000000  0.50000000  1.0
  Bi5+  Bi1  1  0.25000000  0.00000000  0.50000000  1.0
  Bi5+  Bi1  1  0.75000000  0.00000000  0.50000000  1.0
  Bi5+  Bi1  1  0.25000000  0.50000000  0.00000000  1.0
  Bi5+  Bi1  1  0.75000000  0.50000000  0.00000000  1.0
  Bi5+  Bi1  1  0.00000000  0.00000000  0.00000000  1.0
  Bi5+  Bi1  1  0.50000000  0.00000000  0.00000000  1.0
  O2-  O1  1  0.45400000  0.52900000  0.31500000  1.0
  O2-  O1  1  0.95400000  0.52900000  0.31500000  1.0
  O2-  O1  1  0.29600000  0.40700000  0.12100000  1.0
  O2-  O1  1  0.79600000  0.40700000  0.12100000  1.0
  O2-  O1  1  0.14300000  0.97100000  0.37900000  1.0
  O2-  O1  1  0.64300000  0.97100000  0.37900000  1.0
  O2-  O1  1  0.10700000  0.09300000  0.18500000  1.0
  O2-  O1  1  0.60700000  0.09300000  0.18500000  1.0
  O2-  O1  1  0.18950000  0.78600000  0.47100000  1.0
  O2-  O1  1  0.68950000  0.78600000  0.47100000  1.0
  O2-  O1  1  0.09250000  0.71400000  0.59300000  1.0
  O2-  O1  1  0.59250000  0.71400000  0.59300000  1.0
  O2-  O1  1  0.15750000  0.40800000  0.02900000  1.0
  O2-  O1  1  0.65750000  0.40800000  0.02900000  1.0
  O2-  O1  1  0.06050000  0.09200000  0.90700000  1.0
  O2-  O1  1  0.56050000  0.09200000  0.90700000  1.0
  O2-  O1  1  0.29650000  0.68500000  0.21400000  1.0
  O2-  O1  1  0.79650000  0.68500000  0.21400000  1.0
  O2-  O1  1  0.23550000  0.87900000  0.28600000  1.0
  O2-  O1  1  0.73550000  0.87900000  0.28600000  1.0
  O2-  O1  1  0.45350000  0.62100000  0.59200000  1.0
  O2-  O1  1  0.95350000  0.62100000  0.59200000  1.0
  O2-  O1  1  0.01450000  0.81500000  0.90800000  1.0
  O2-  O1  1  0.51450000  0.81500000  0.90800000  1.0
  O2-  O1  1  0.04600000  0.47100000  0.68500000  1.0
  O2-  O1  1  0.54600000  0.47100000  0.68500000  1.0
  O2-  O1  1  0.20400000  0.59300000  0.87900000  1.0
  O2-  O1  1  0.70400000  0.59300000  0.87900000  1.0
  O2-  O1  1  0.35700000  0.02900000  0.62100000  1.0
  O2-  O1  1  0.85700000  0.02900000  0.62100000  1.0
  O2-  O1  1  0.39300000  0.90700000  0.81500000  1.0
  O2-  O1  1  0.89300000  0.90700000  0.81500000  1.0
  O2-  O1  1  0.31050000  0.21400000  0.52900000  1.0
  O2-  O1  1  0.81050000  0.21400000  0.52900000  1.0
  O2-  O1  1  0.40750000  0.28600000  0.40700000  1.0
  O2-  O1  1  0.90750000  0.28600000  0.40700000  1.0
  O2-  O1  1  0.34250000  0.59200000  0.97100000  1.0
  O2-  O1  1  0.84250000  0.59200000  0.97100000  1.0
  O2-  O1  1  0.43950000  0.90800000  0.09300000  1.0
  O2-  O1  1  0.93950000  0.90800000  0.09300000  1.0
  O2-  O1  1  0.20350000  0.31500000  0.78600000  1.0
  O2-  O1  1  0.70350000  0.31500000  0.78600000  1.0
  O2-  O1  1  0.26450000  0.12100000  0.71400000  1.0
  O2-  O1  1  0.76450000  0.12100000  0.71400000  1.0
  O2-  O1  1  0.04650000  0.37900000  0.40800000  1.0
  O2-  O1  1  0.54650000  0.37900000  0.40800000  1.0
  O2-  O1  1  0.48550000  0.18500000  0.09200000  1.0
  O2-  O1  1  0.98550000  0.18500000  0.09200000  1.0
  O2-  O1  1  0.04650000  0.21400000  0.68500000  1.0
  O2-  O1  1  0.54650000  0.21400000  0.68500000  1.0
  O2-  O1  1  0.48550000  0.28600000  0.87900000  1.0
  O2-  O1  1  0.98550000  0.28600000  0.87900000  1.0
  O2-  O1  1  0.20350000  0.59200000  0.62100000  1.0
  O2-  O1  1  0.70350000  0.59200000  0.62100000  1.0
  O2-  O1  1  0.26450000  0.90800000  0.81500000  1.0
  O2-  O1  1  0.76450000  0.90800000  0.81500000  1.0
  O2-  O1  1  0.20400000  0.31500000  0.52900000  1.0
  O2-  O1  1  0.70400000  0.31500000  0.52900000  1.0
  O2-  O1  1  0.04600000  0.12100000  0.40700000  1.0
  O2-  O1  1  0.54600000  0.12100000  0.40700000  1.0
  O2-  O1  1  0.39300000  0.37900000  0.97100000  1.0
  O2-  O1  1  0.89300000  0.37900000  0.97100000  1.0
  O2-  O1  1  0.35700000  0.18500000  0.09300000  1.0
  O2-  O1  1  0.85700000  0.18500000  0.09300000  1.0
  O2-  O1  1  0.43950000  0.47100000  0.78600000  1.0
  O2-  O1  1  0.93950000  0.47100000  0.78600000  1.0
  O2-  O1  1  0.34250000  0.59300000  0.71400000  1.0
  O2-  O1  1  0.84250000  0.59300000  0.71400000  1.0
  O2-  O1  1  0.40750000  0.02900000  0.40800000  1.0
  O2-  O1  1  0.90750000  0.02900000  0.40800000  1.0
  O2-  O1  1  0.31050000  0.90700000  0.09200000  1.0
  O2-  O1  1  0.81050000  0.90700000  0.09200000  1.0
  O2-  O1  1  0.45350000  0.78600000  0.31500000  1.0
  O2-  O1  1  0.95350000  0.78600000  0.31500000  1.0
  O2-  O1  1  0.01450000  0.71400000  0.12100000  1.0
  O2-  O1  1  0.51450000  0.71400000  0.12100000  1.0
  O2-  O1  1  0.29650000  0.40800000  0.37900000  1.0
  O2-  O1  1  0.79650000  0.40800000  0.37900000  1.0
  O2-  O1  1  0.23550000  0.09200000  0.18500000  1.0
  O2-  O1  1  0.73550000  0.09200000  0.18500000  1.0
  O2-  O1  1  0.29600000  0.68500000  0.47100000  1.0
  O2-  O1  1  0.79600000  0.68500000  0.47100000  1.0
  O2-  O1  1  0.45400000  0.87900000  0.59300000  1.0
  O2-  O1  1  0.95400000  0.87900000  0.59300000  1.0
  O2-  O1  1  0.10700000  0.62100000  0.02900000  1.0
  O2-  O1  1  0.60700000  0.62100000  0.02900000  1.0
  O2-  O1  1  0.14300000  0.81500000  0.90700000  1.0
  O2-  O1  1  0.64300000  0.81500000  0.90700000  1.0
  O2-  O1  1  0.06050000  0.52900000  0.21400000  1.0
  O2-  O1  1  0.56050000  0.52900000  0.21400000  1.0
  O2-  O1  1  0.15750000  0.40700000  0.28600000  1.0
  O2-  O1  1  0.65750000  0.40700000  0.28600000  1.0
  O2-  O1  1  0.09250000  0.97100000  0.59200000  1.0
  O2-  O1  1  0.59250000  0.97100000  0.59200000  1.0
  O2-  O1  1  0.18950000  0.09300000  0.90800000  1.0
  O2-  O1  1  0.68950000  0.09300000  0.90800000  1.0
