# generated using pymatgen
data_Li6Br3N
_symmetry_space_group_name_H-M   'P 1'
_cell_length_a   26.81688000
_cell_length_b   8.93896000
_cell_length_c   8.93896000
_cell_angle_alpha   90.00000000
_cell_angle_beta   90.00000000
_cell_angle_gamma   90.00000000
_symmetry_Int_Tables_number   1
_chemical_formula_structural   Li6Br3N
_chemical_formula_sum   'Li72 Br36 N12'
_cell_volume   2142.80295413
_cell_formula_units_Z   12
loop_
 _symmetry_equiv_pos_site_id
 _symmetry_equiv_pos_as_xyz
  1  'x, y, z'
loop_
 _atom_type_symbol
 _atom_type_oxidation_number
  Li+  1.0
  Br-  -1.0
  N3-  -3.0
loop_
 _atom_site_type_symbol
 _atom_site_label
 _atom_site_symmetry_multiplicity
 _atom_site_fract_x
 _atom_site_fract_y
 _atom_site_fract_z
 _atom_site_occupancy
  Li+  Li0  1  0.00197400  0.80465947  0.83833556  1.0
  Li+  Li1  1  0.33633333  0.80300000  0.83900000  1.0
  Li+  Li2  1  0.66966667  0.80300000  0.83900000  1.0
  Li+  Li3  1  0.26766667  0.99100000  0.83900000  1.0
  Li+  Li4  1  0.60100000  0.99100000  0.83900000  1.0
  Li+  Li5  1  0.93433333  0.99100000  0.83900000  1.0
  Li+  Li6  1  0.33257643  0.09222578  0.55545417  1.0
  Li+  Li7  1  0.66366667  0.08900000  0.55300000  1.0
  Li+  Li8  1  0.99726727  0.09163598  0.55106796  1.0
  Li+  Li9  1  0.02966667  0.49100000  0.44700000  1.0
  Li+  Li10  1  0.36300000  0.49100000  0.44700000  1.0
  Li+  Li11  1  0.69633333  0.49100000  0.44700000  1.0
  Li+  Li12  1  0.26766667  0.49100000  0.16100000  1.0
  Li+  Li13  1  0.60100000  0.49100000  0.16100000  1.0
  Li+  Li14  1  0.93238596  0.49342271  0.16220825  1.0
  Li+  Li15  1  0.06566667  0.58900000  0.25900000  1.0
  Li+  Li16  1  0.39900000  0.58900000  0.25900000  1.0
  Li+  Li17  1  0.73233333  0.58900000  0.25900000  1.0
  Li+  Li18  1  0.10055346  0.50762308  0.83921448  1.0
  Li+  Li19  1  0.43433333  0.50900000  0.83900000  1.0
  Li+  Li20  1  0.76766667  0.50900000  0.83900000  1.0
  Li+  Li21  1  0.19633333  0.50900000  0.94700000  1.0
  Li+  Li22  1  0.52966667  0.50900000  0.94700000  1.0
  Li+  Li23  1  0.86404150  0.50829039  0.94238329  1.0
  Li+  Li24  1  0.16732248  0.41198629  0.94548471  1.0
  Li+  Li25  1  0.49700000  0.41100000  0.94700000  1.0
  Li+  Li26  1  0.83033333  0.41100000  0.94700000  1.0
  Li+  Li27  1  0.13700000  0.19700000  0.25900000  1.0
  Li+  Li28  1  0.47033333  0.19700000  0.25900000  1.0
  Li+  Li29  1  0.80366667  0.19700000  0.25900000  1.0
  Li+  Li30  1  0.13700000  0.00900000  0.05300000  1.0
  Li+  Li31  1  0.47033333  0.00900000  0.05300000  1.0
  Li+  Li32  1  0.80366667  0.00900000  0.05300000  1.0
  Li+  Li33  1  0.16366667  0.08900000  0.05300000  1.0
  Li+  Li34  1  0.49700000  0.08900000  0.05300000  1.0
  Li+  Li35  1  0.83120042  0.09200833  0.04912303  1.0
  Li+  Li36  1  0.02866667  0.19400000  0.79000000  1.0
  Li+  Li37  1  0.36200000  0.19400000  0.79000000  1.0
  Li+  Li38  1  0.69502434  0.19027477  0.78914592  1.0
  Li+  Li39  1  0.26866667  0.91400000  0.71000000  1.0
  Li+  Li40  1  0.60200000  0.91400000  0.71000000  1.0
  Li+  Li41  1  0.93226325  0.91799888  0.70609398  1.0
  Li+  Li42  1  0.26866667  0.46000000  0.33600000  1.0
  Li+  Li43  1  0.60200000  0.46000000  0.33600000  1.0
  Li+  Li44  1  0.93533333  0.46000000  0.33600000  1.0
  Li+  Li45  1  0.10200000  0.54000000  0.66400000  1.0
  Li+  Li46  1  0.43644479  0.53987389  0.66430289  1.0
  Li+  Li47  1  0.76866667  0.54000000  0.66400000  1.0
  Li+  Li48  1  0.15333333  0.08600000  0.44400000  1.0
  Li+  Li49  1  0.48666667  0.08600000  0.44400000  1.0
  Li+  Li50  1  0.82000000  0.08600000  0.44400000  1.0
  Li+  Li51  1  0.32233333  0.97600000  0.53800000  1.0
  Li+  Li52  1  0.65566667  0.97600000  0.53800000  1.0
  Li+  Li53  1  0.98900000  0.97600000  0.53800000  1.0
  Li+  Li54  1  0.00800000  0.71200000  0.21700000  1.0
  Li+  Li55  1  0.34133333  0.71200000  0.21700000  1.0
  Li+  Li56  1  0.67606755  0.71188429  0.22029667  1.0
  Li+  Li57  1  0.07270516  0.46579475  0.22195171  1.0
  Li+  Li58  1  0.40400000  0.46700000  0.22600000  1.0
  Li+  Li59  1  0.73944248  0.46844245  0.22730167  1.0
  Li+  Li60  1  0.09600000  0.47600000  0.78300000  1.0
  Li+  Li61  1  0.42811897  0.47433550  0.78513699  1.0
  Li+  Li62  1  0.76266667  0.47600000  0.78300000  1.0
  Li+  Li63  1  0.17466667  0.78800000  0.28300000  1.0
  Li+  Li64  1  0.50800000  0.78800000  0.28300000  1.0
  Li+  Li65  1  0.84201449  0.78386435  0.28398590  1.0
  Li+  Li66  1  0.17766667  0.97600000  0.46200000  1.0
  Li+  Li67  1  0.51100000  0.97600000  0.46200000  1.0
  Li+  Li68  1  0.84433333  0.97600000  0.46200000  1.0
  Li+  Li69  1  0.09690538  0.97394793  0.21446916  1.0
  Li+  Li70  1  0.42933333  0.97600000  0.21700000  1.0
  Li+  Li71  1  0.76266667  0.97600000  0.21700000  1.0
  Br-  Br72  1  0.16666667  0.00000000  0.75000000  1.0
  Br-  Br73  1  0.49917231  0.00018861  0.74824399  1.0
  Br-  Br74  1  0.83333333  0.00000000  0.75000000  1.0
  Br-  Br75  1  0.99924106  0.50133208  0.75137484  1.0
  Br-  Br76  1  0.33333333  0.50000000  0.75000000  1.0
  Br-  Br77  1  0.66711631  0.50298330  0.75302787  1.0
  Br-  Br78  1  0.00000000  0.00000000  0.25000000  1.0
  Br-  Br79  1  0.33333333  0.00000000  0.25000000  1.0
  Br-  Br80  1  0.66666667  0.00000000  0.25000000  1.0
  Br-  Br81  1  0.16666667  0.50000000  0.25000000  1.0
  Br-  Br82  1  0.50030162  0.49570894  0.24657434  1.0
  Br-  Br83  1  0.83333333  0.50000000  0.25000000  1.0
  Br-  Br84  1  0.08333333  0.25000000  0.50000000  1.0
  Br-  Br85  1  0.41399529  0.24994865  0.49912917  1.0
  Br-  Br86  1  0.75000000  0.25000000  0.50000000  1.0
  Br-  Br87  1  0.08333333  0.75000000  0.00000000  1.0
  Br-  Br88  1  0.41666667  0.75000000  0.00000000  1.0
  Br-  Br89  1  0.75160212  0.74518688  0.99776592  1.0
  Br-  Br90  1  0.25000000  0.75000000  0.50000000  1.0
  Br-  Br91  1  0.58543804  0.75564026  0.49740731  1.0
  Br-  Br92  1  0.91666667  0.75000000  0.50000000  1.0
  Br-  Br93  1  0.25000000  0.25000000  0.00000000  1.0
  Br-  Br94  1  0.58333333  0.25000000  0.00000000  1.0
  Br-  Br95  1  0.91666667  0.25000000  0.00000000  1.0
  Br-  Br96  1  0.25000000  0.75000000  0.00000000  1.0
  Br-  Br97  1  0.58222854  0.75335803  0.00029265  1.0
  Br-  Br98  1  0.91256315  0.75296016  0.99409878  1.0
  Br-  Br99  1  0.24804746  0.24771068  0.50234657  1.0
  Br-  Br100  1  0.58500134  0.25356341  0.49900583  1.0
  Br-  Br101  1  0.91666667  0.25000000  0.50000000  1.0
  Br-  Br102  1  0.08333333  0.25000000  0.00000000  1.0
  Br-  Br103  1  0.41666667  0.25000000  0.00000000  1.0
  Br-  Br104  1  0.75000000  0.25000000  0.00000000  1.0
  Br-  Br105  1  0.08333333  0.75000000  0.50000000  1.0
  Br-  Br106  1  0.41618338  0.75223932  0.49778633  1.0
  Br-  Br107  1  0.75000000  0.75000000  0.50000000  1.0
  N3-  N108  1  0.00000000  0.00000000  0.75000000  1.0
  N3-  N109  1  0.33541057  0.00070657  0.75190076  1.0
  N3-  N110  1  0.66666667  0.00000000  0.75000000  1.0
  N3-  N111  1  0.00000000  0.50000000  0.25000000  1.0
  N3-  N112  1  0.33333333  0.50000000  0.25000000  1.0
  N3-  N113  1  0.66666667  0.50000000  0.25000000  1.0
  N3-  N114  1  0.16666667  0.50000000  0.75000000  1.0
  N3-  N115  1  0.50000000  0.50000000  0.75000000  1.0
  N3-  N116  1  0.83333333  0.50000000  0.75000000  1.0
  N3-  N117  1  0.16666667  0.00000000  0.25000000  1.0
  N3-  N118  1  0.50000000  0.00000000  0.25000000  1.0
  N3-  N119  1  0.83333333  0.00000000  0.25000000  1.0
