# generated using pymatgen
data_Li6Br3N
_symmetry_space_group_name_H-M   'P 1'
_cell_length_a   8.94936857
_cell_length_b   26.84810572
_cell_length_c   8.94936857
_cell_angle_alpha   90.00000000
_cell_angle_beta   90.00000000
_cell_angle_gamma   90.00000000
_symmetry_Int_Tables_number   1
_chemical_formula_structural   Li6Br3N
_chemical_formula_sum   'Li72 Br36 N12'
_cell_volume   2150.29694582
_cell_formula_units_Z   12
loop_
 _symmetry_equiv_pos_site_id
 _symmetry_equiv_pos_as_xyz
  1  'x, y, z'
loop_
 _atom_type_symbol
 _atom_type_oxidation_number
  Li+  1.0
  Br-  -1.0
  N3-  -3.0
loop_
 _atom_site_type_symbol
 _atom_site_label
 _atom_site_symmetry_multiplicity
 _atom_site_fract_x
 _atom_site_fract_y
 _atom_site_fract_z
 _atom_site_occupancy
  Li+  Li0  1  0.08900000  0.66366667  0.19700000  1.0
  Li+  Li1  1  0.08900000  0.33033333  0.19700000  1.0
  Li+  Li2  1  0.08900000  0.99700000  0.19700000  1.0
  Li+  Li3  1  0.08900000  0.39900000  0.00900000  1.0
  Li+  Li4  1  0.08900000  0.06566667  0.00900000  1.0
  Li+  Li5  1  0.08900000  0.73233333  0.00900000  1.0
  Li+  Li6  1  0.80300000  0.33633333  0.91100000  1.0
  Li+  Li7  1  0.80300000  0.00300000  0.91100000  1.0
  Li+  Li8  1  0.80300000  0.66966667  0.91100000  1.0
  Li+  Li9  1  0.69700000  0.63700000  0.50900000  1.0
  Li+  Li10  1  0.69700000  0.30366667  0.50900000  1.0
  Li+  Li11  1  0.69700000  0.97033333  0.50900000  1.0
  Li+  Li12  1  0.41100000  0.39900000  0.50900000  1.0
  Li+  Li13  1  0.41100000  0.06566667  0.50900000  1.0
  Li+  Li14  1  0.41100000  0.73233333  0.50900000  1.0
  Li+  Li15  1  0.50900000  0.60100000  0.41100000  1.0
  Li+  Li16  1  0.50900000  0.26766667  0.41100000  1.0
  Li+  Li17  1  0.50900000  0.93433333  0.41100000  1.0
  Li+  Li18  1  0.08900000  0.56566667  0.49100000  1.0
  Li+  Li19  1  0.08900000  0.23233333  0.49100000  1.0
  Li+  Li20  1  0.08900000  0.89900000  0.49100000  1.0
  Li+  Li21  1  0.19700000  0.47033333  0.49100000  1.0
  Li+  Li22  1  0.19700000  0.13700000  0.49100000  1.0
  Li+  Li23  1  0.19700000  0.80366667  0.49100000  1.0
  Li+  Li24  1  0.19700000  0.50300000  0.58900000  1.0
  Li+  Li25  1  0.19700000  0.16966667  0.58900000  1.0
  Li+  Li26  1  0.19700000  0.83633333  0.58900000  1.0
  Li+  Li27  1  0.50900000  0.52966667  0.80300000  1.0
  Li+  Li28  1  0.50900000  0.19633333  0.80300000  1.0
  Li+  Li29  1  0.50900000  0.86300000  0.80300000  1.0
  Li+  Li30  1  0.30300000  0.52966667  0.99100000  1.0
  Li+  Li31  1  0.30300000  0.19633333  0.99100000  1.0
  Li+  Li32  1  0.30300000  0.86300000  0.99100000  1.0
  Li+  Li33  1  0.30300000  0.50300000  0.91100000  1.0
  Li+  Li34  1  0.30300000  0.16966667  0.91100000  1.0
  Li+  Li35  1  0.30300000  0.83633333  0.91100000  1.0
  Li+  Li36  1  0.04000000  0.63800000  0.80600000  1.0
  Li+  Li37  1  0.04000000  0.30466667  0.80600000  1.0
  Li+  Li38  1  0.04000000  0.97133333  0.80600000  1.0
  Li+  Li39  1  0.96000000  0.39800000  0.08600000  1.0
  Li+  Li40  1  0.96000000  0.06466667  0.08600000  1.0
  Li+  Li41  1  0.96000000  0.73133333  0.08600000  1.0
  Li+  Li42  1  0.58600000  0.39800000  0.54000000  1.0
  Li+  Li43  1  0.58600000  0.06466667  0.54000000  1.0
  Li+  Li44  1  0.58600000  0.73133333  0.54000000  1.0
  Li+  Li45  1  0.91400000  0.56466667  0.46000000  1.0
  Li+  Li46  1  0.91400000  0.23133333  0.46000000  1.0
  Li+  Li47  1  0.91400000  0.89800000  0.46000000  1.0
  Li+  Li48  1  0.69400000  0.51333333  0.91400000  1.0
  Li+  Li49  1  0.69400000  0.18000000  0.91400000  1.0
  Li+  Li50  1  0.69400000  0.84666667  0.91400000  1.0
  Li+  Li51  1  0.78800000  0.34433333  0.02400000  1.0
  Li+  Li52  1  0.78800000  0.01100000  0.02400000  1.0
  Li+  Li53  1  0.78800000  0.67766667  0.02400000  1.0
  Li+  Li54  1  0.46700000  0.65866667  0.28800000  1.0
  Li+  Li55  1  0.46700000  0.32533333  0.28800000  1.0
  Li+  Li56  1  0.46700000  0.99200000  0.28800000  1.0
  Li+  Li57  1  0.47600000  0.59600000  0.53300000  1.0
  Li+  Li58  1  0.47600000  0.26266667  0.53300000  1.0
  Li+  Li59  1  0.47600000  0.92933333  0.53300000  1.0
  Li+  Li60  1  0.03300000  0.57066667  0.52400000  1.0
  Li+  Li61  1  0.03300000  0.23733333  0.52400000  1.0
  Li+  Li62  1  0.03300000  0.90400000  0.52400000  1.0
  Li+  Li63  1  0.53300000  0.49200000  0.21200000  1.0
  Li+  Li64  1  0.53300000  0.15866667  0.21200000  1.0
  Li+  Li65  1  0.53300000  0.82533333  0.21200000  1.0
  Li+  Li66  1  0.71200000  0.48900000  0.02400000  1.0
  Li+  Li67  1  0.71200000  0.15566667  0.02400000  1.0
  Li+  Li68  1  0.71200000  0.82233333  0.02400000  1.0
  Li+  Li69  1  0.46700000  0.57066667  0.02400000  1.0
  Li+  Li70  1  0.46700000  0.23733333  0.02400000  1.0
  Li+  Li71  1  0.46700000  0.90400000  0.02400000  1.0
  Br-  Br72  1  0.00000000  0.50000000  0.00000000  1.0
  Br-  Br73  1  0.00000000  0.16666667  0.00000000  1.0
  Br-  Br74  1  0.00000000  0.83333333  0.00000000  1.0
  Br-  Br75  1  0.00000000  0.66666667  0.50000000  1.0
  Br-  Br76  1  0.00000000  0.33333333  0.50000000  1.0
  Br-  Br77  1  0.00000000  0.00000000  0.50000000  1.0
  Br-  Br78  1  0.50000000  0.66666667  0.00000000  1.0
  Br-  Br79  1  0.50000000  0.33333333  0.00000000  1.0
  Br-  Br80  1  0.50000000  0.00000000  0.00000000  1.0
  Br-  Br81  1  0.50000000  0.50000000  0.50000000  1.0
  Br-  Br82  1  0.50000000  0.16666667  0.50000000  1.0
  Br-  Br83  1  0.50000000  0.83333333  0.50000000  1.0
  Br-  Br84  1  0.75000000  0.58333333  0.75000000  1.0
  Br-  Br85  1  0.75000000  0.25000000  0.75000000  1.0
  Br-  Br86  1  0.75000000  0.91666667  0.75000000  1.0
  Br-  Br87  1  0.25000000  0.58333333  0.25000000  1.0
  Br-  Br88  1  0.25000000  0.25000000  0.25000000  1.0
  Br-  Br89  1  0.25000000  0.91666667  0.25000000  1.0
  Br-  Br90  1  0.75000000  0.41666667  0.25000000  1.0
  Br-  Br91  1  0.75000000  0.08333333  0.25000000  1.0
  Br-  Br92  1  0.75000000  0.75000000  0.25000000  1.0
  Br-  Br93  1  0.25000000  0.41666667  0.75000000  1.0
  Br-  Br94  1  0.25000000  0.08333333  0.75000000  1.0
  Br-  Br95  1  0.25000000  0.75000000  0.75000000  1.0
  Br-  Br96  1  0.25000000  0.41666667  0.25000000  1.0
  Br-  Br97  1  0.25000000  0.08333333  0.25000000  1.0
  Br-  Br98  1  0.25000000  0.75000000  0.25000000  1.0
  Br-  Br99  1  0.75000000  0.41666667  0.75000000  1.0
  Br-  Br100  1  0.75000000  0.08333333  0.75000000  1.0
  Br-  Br101  1  0.75000000  0.75000000  0.75000000  1.0
  Br-  Br102  1  0.25000000  0.58333333  0.75000000  1.0
  Br-  Br103  1  0.25000000  0.25000000  0.75000000  1.0
  Br-  Br104  1  0.25000000  0.91666667  0.75000000  1.0
  Br-  Br105  1  0.75000000  0.58333333  0.25000000  1.0
  Br-  Br106  1  0.75000000  0.25000000  0.25000000  1.0
  Br-  Br107  1  0.75000000  0.91666667  0.25000000  1.0
  N3-  N108  1  0.00000000  0.66666667  0.00000000  1.0
  N3-  N109  1  0.00000000  0.33333333  0.00000000  1.0
  N3-  N110  1  0.00000000  0.00000000  0.00000000  1.0
  N3-  N111  1  0.50000000  0.66666667  0.50000000  1.0
  N3-  N112  1  0.50000000  0.33333333  0.50000000  1.0
  N3-  N113  1  0.50000000  0.00000000  0.50000000  1.0
  N3-  N114  1  0.00000000  0.50000000  0.50000000  1.0
  N3-  N115  1  0.00000000  0.16666667  0.50000000  1.0
  N3-  N116  1  0.00000000  0.83333333  0.50000000  1.0
  N3-  N117  1  0.50000000  0.50000000  0.00000000  1.0
  N3-  N118  1  0.50000000  0.16666667  0.00000000  1.0
  N3-  N119  1  0.50000000  0.83333333  0.00000000  1.0
