# generated using pymatgen
data_Li6Br3N
_symmetry_space_group_name_H-M   'P 1'
_cell_length_a   26.81688000
_cell_length_b   8.93896000
_cell_length_c   8.93896000
_cell_angle_alpha   90.00000000
_cell_angle_beta   90.00000000
_cell_angle_gamma   90.00000000
_symmetry_Int_Tables_number   1
_chemical_formula_structural   Li6Br3N
_chemical_formula_sum   'Li72 Br36 N12'
_cell_volume   2142.80295413
_cell_formula_units_Z   12
loop_
 _symmetry_equiv_pos_site_id
 _symmetry_equiv_pos_as_xyz
  1  'x, y, z'
loop_
 _atom_type_symbol
 _atom_type_oxidation_number
  Li+  1.0
  Br-  -1.0
  N3-  -3.0
loop_
 _atom_site_type_symbol
 _atom_site_label
 _atom_site_symmetry_multiplicity
 _atom_site_fract_x
 _atom_site_fract_y
 _atom_site_fract_z
 _atom_site_occupancy
  Li+  Li0  1  0.00300000  0.91100000  0.19700000  1.0
  Li+  Li0  1  0.33633333  0.91100000  0.19700000  1.0
  Li+  Li0  1  0.66966667  0.91100000  0.19700000  1.0
  Li+  Li1  1  0.26766667  0.91100000  0.00900000  1.0
  Li+  Li1  1  0.60100000  0.91100000  0.00900000  1.0
  Li+  Li1  1  0.93433333  0.91100000  0.00900000  1.0
  Li+  Li2  1  0.33033333  0.19700000  0.91100000  1.0
  Li+  Li2  1  0.66366667  0.19700000  0.91100000  1.0
  Li+  Li2  1  0.99700000  0.19700000  0.91100000  1.0
  Li+  Li3  1  0.02966667  0.30300000  0.50900000  1.0
  Li+  Li3  1  0.36300000  0.30300000  0.50900000  1.0
  Li+  Li3  1  0.69633333  0.30300000  0.50900000  1.0
  Li+  Li4  1  0.26766667  0.58900000  0.50900000  1.0
  Li+  Li4  1  0.60100000  0.58900000  0.50900000  1.0
  Li+  Li4  1  0.93433333  0.58900000  0.50900000  1.0
  Li+  Li5  1  0.06566667  0.49100000  0.41100000  1.0
  Li+  Li5  1  0.39900000  0.49100000  0.41100000  1.0
  Li+  Li5  1  0.73233333  0.49100000  0.41100000  1.0
  Li+  Li6  1  0.10100000  0.91100000  0.49100000  1.0
  Li+  Li6  1  0.43433333  0.91100000  0.49100000  1.0
  Li+  Li6  1  0.76766667  0.91100000  0.49100000  1.0
  Li+  Li7  1  0.19633333  0.80300000  0.49100000  1.0
  Li+  Li7  1  0.52966667  0.80300000  0.49100000  1.0
  Li+  Li7  1  0.86300000  0.80300000  0.49100000  1.0
  Li+  Li8  1  0.16366667  0.80300000  0.58900000  1.0
  Li+  Li8  1  0.49700000  0.80300000  0.58900000  1.0
  Li+  Li8  1  0.83033333  0.80300000  0.58900000  1.0
  Li+  Li9  1  0.13700000  0.49100000  0.80300000  1.0
  Li+  Li9  1  0.47033333  0.49100000  0.80300000  1.0
  Li+  Li9  1  0.80366667  0.49100000  0.80300000  1.0
  Li+  Li10  1  0.13700000  0.69700000  0.99100000  1.0
  Li+  Li10  1  0.47033333  0.69700000  0.99100000  1.0
  Li+  Li10  1  0.80366667  0.69700000  0.99100000  1.0
  Li+  Li11  1  0.16366667  0.69700000  0.91100000  1.0
  Li+  Li11  1  0.49700000  0.69700000  0.91100000  1.0
  Li+  Li11  1  0.83033333  0.69700000  0.91100000  1.0
  Li+  Li12  1  0.02866667  0.96000000  0.80600000  1.0
  Li+  Li12  1  0.36200000  0.96000000  0.80600000  1.0
  Li+  Li12  1  0.69533333  0.96000000  0.80600000  1.0
  Li+  Li13  1  0.26866667  0.04000000  0.08600000  1.0
  Li+  Li13  1  0.60200000  0.04000000  0.08600000  1.0
  Li+  Li13  1  0.93533333  0.04000000  0.08600000  1.0
  Li+  Li14  1  0.26866667  0.41400000  0.54000000  1.0
  Li+  Li14  1  0.60200000  0.41400000  0.54000000  1.0
  Li+  Li14  1  0.93533333  0.41400000  0.54000000  1.0
  Li+  Li15  1  0.10200000  0.08600000  0.46000000  1.0
  Li+  Li15  1  0.43533333  0.08600000  0.46000000  1.0
  Li+  Li15  1  0.76866667  0.08600000  0.46000000  1.0
  Li+  Li16  1  0.15333333  0.30600000  0.91400000  1.0
  Li+  Li16  1  0.48666667  0.30600000  0.91400000  1.0
  Li+  Li16  1  0.82000000  0.30600000  0.91400000  1.0
  Li+  Li17  1  0.32233333  0.21200000  0.02400000  1.0
  Li+  Li17  1  0.65566667  0.21200000  0.02400000  1.0
  Li+  Li17  1  0.98900000  0.21200000  0.02400000  1.0
  Li+  Li18  1  0.00800000  0.53300000  0.28800000  1.0
  Li+  Li18  1  0.34133333  0.53300000  0.28800000  1.0
  Li+  Li18  1  0.67466667  0.53300000  0.28800000  1.0
  Li+  Li19  1  0.07066667  0.52400000  0.53300000  1.0
  Li+  Li19  1  0.40400000  0.52400000  0.53300000  1.0
  Li+  Li19  1  0.73733333  0.52400000  0.53300000  1.0
  Li+  Li20  1  0.09600000  0.96700000  0.52400000  1.0
  Li+  Li20  1  0.42933333  0.96700000  0.52400000  1.0
  Li+  Li20  1  0.76266667  0.96700000  0.52400000  1.0
  Li+  Li21  1  0.17466667  0.46700000  0.21200000  1.0
  Li+  Li21  1  0.50800000  0.46700000  0.21200000  1.0
  Li+  Li21  1  0.84133333  0.46700000  0.21200000  1.0
  Li+  Li22  1  0.17766667  0.28800000  0.02400000  1.0
  Li+  Li22  1  0.51100000  0.28800000  0.02400000  1.0
  Li+  Li22  1  0.84433333  0.28800000  0.02400000  1.0
  Li+  Li23  1  0.09600000  0.53300000  0.02400000  1.0
  Li+  Li23  1  0.42933333  0.53300000  0.02400000  1.0
  Li+  Li23  1  0.76266667  0.53300000  0.02400000  1.0
  Br-  Br1  1  0.16666667  0.00000000  0.00000000  1.0
  Br-  Br1  1  0.50000000  0.00000000  0.00000000  1.0
  Br-  Br1  1  0.83333333  0.00000000  0.00000000  1.0
  Br-  Br1  1  0.00000000  0.00000000  0.50000000  1.0
  Br-  Br1  1  0.33333333  0.00000000  0.50000000  1.0
  Br-  Br1  1  0.66666667  0.00000000  0.50000000  1.0
  Br-  Br1  1  0.00000000  0.50000000  0.00000000  1.0
  Br-  Br1  1  0.33333333  0.50000000  0.00000000  1.0
  Br-  Br1  1  0.66666667  0.50000000  0.00000000  1.0
  Br-  Br1  1  0.16666667  0.50000000  0.50000000  1.0
  Br-  Br1  1  0.50000000  0.50000000  0.50000000  1.0
  Br-  Br1  1  0.83333333  0.50000000  0.50000000  1.0
  Br-  Br2  1  0.08333333  0.25000000  0.75000000  1.0
  Br-  Br2  1  0.41666667  0.25000000  0.75000000  1.0
  Br-  Br2  1  0.75000000  0.25000000  0.75000000  1.0
  Br-  Br2  1  0.08333333  0.75000000  0.25000000  1.0
  Br-  Br2  1  0.41666667  0.75000000  0.25000000  1.0
  Br-  Br2  1  0.75000000  0.75000000  0.25000000  1.0
  Br-  Br2  1  0.25000000  0.25000000  0.25000000  1.0
  Br-  Br2  1  0.58333333  0.25000000  0.25000000  1.0
  Br-  Br2  1  0.91666667  0.25000000  0.25000000  1.0
  Br-  Br2  1  0.25000000  0.75000000  0.75000000  1.0
  Br-  Br2  1  0.58333333  0.75000000  0.75000000  1.0
  Br-  Br2  1  0.91666667  0.75000000  0.75000000  1.0
  Br-  Br2  1  0.25000000  0.75000000  0.25000000  1.0
  Br-  Br2  1  0.58333333  0.75000000  0.25000000  1.0
  Br-  Br2  1  0.91666667  0.75000000  0.25000000  1.0
  Br-  Br2  1  0.25000000  0.25000000  0.75000000  1.0
  Br-  Br2  1  0.58333333  0.25000000  0.75000000  1.0
  Br-  Br2  1  0.91666667  0.25000000  0.75000000  1.0
  Br-  Br2  1  0.08333333  0.75000000  0.75000000  1.0
  Br-  Br2  1  0.41666667  0.75000000  0.75000000  1.0
  Br-  Br2  1  0.75000000  0.75000000  0.75000000  1.0
  Br-  Br2  1  0.08333333  0.25000000  0.25000000  1.0
  Br-  Br2  1  0.41666667  0.25000000  0.25000000  1.0
  Br-  Br2  1  0.75000000  0.25000000  0.25000000  1.0
  N3-  N1  1  0.00000000  0.00000000  0.00000000  1.0
  N3-  N1  1  0.33333333  0.00000000  0.00000000  1.0
  N3-  N1  1  0.66666667  0.00000000  0.00000000  1.0
  N3-  N1  1  0.00000000  0.50000000  0.50000000  1.0
  N3-  N1  1  0.33333333  0.50000000  0.50000000  1.0
  N3-  N1  1  0.66666667  0.50000000  0.50000000  1.0
  N3-  N1  1  0.16666667  0.00000000  0.50000000  1.0
  N3-  N1  1  0.50000000  0.00000000  0.50000000  1.0
  N3-  N1  1  0.83333333  0.00000000  0.50000000  1.0
  N3-  N1  1  0.16666667  0.50000000  0.00000000  1.0
  N3-  N1  1  0.50000000  0.50000000  0.00000000  1.0
  N3-  N1  1  0.83333333  0.50000000  0.00000000  1.0
