# generated using pymatgen
data_NaLi4La5Nb20O60
_symmetry_space_group_name_H-M   'P 1'
_cell_length_a   15.61200000
_cell_length_b   19.52000000
_cell_length_c   7.85400000
_cell_angle_alpha   90.00000000
_cell_angle_beta   90.00000000
_cell_angle_gamma   90.00000000
_symmetry_Int_Tables_number   1
_chemical_formula_structural   NaLi4La5Nb20O60
_chemical_formula_sum   'Na2 Li8 La10 Nb40 O120'
_cell_volume   2393.47696896
_cell_formula_units_Z   2
loop_
 _symmetry_equiv_pos_site_id
 _symmetry_equiv_pos_as_xyz
  1  'x, y, z'
loop_
 _atom_type_symbol
 _atom_type_oxidation_number
  Na+  1.0
  Li+  1.0
  La3+  3.0
  Nb5+  5.0
  O2-  -2.0
loop_
 _atom_site_type_symbol
 _atom_site_label
 _atom_site_symmetry_multiplicity
 _atom_site_fract_x
 _atom_site_fract_y
 _atom_site_fract_z
 _atom_site_occupancy
  Na+  Na0  1  0.25000000  0.60000000  0.00000000  1.0
  Na+  Na0  1  0.75000000  0.60000000  0.00000000  1.0
  Li+  Li1  1  0.00000000  0.20000000  0.00000000  1.0
  Li+  Li1  1  0.50000000  0.20000000  0.00000000  1.0
  Li+  Li2  1  0.00000000  0.80000000  0.00000000  1.0
  Li+  Li2  1  0.50000000  0.80000000  0.00000000  1.0
  Li+  Li3  1  0.25000000  0.00000000  0.00000000  1.0
  Li+  Li3  1  0.75000000  0.00000000  0.00000000  1.0
  Li+  Li4  1  0.25000000  0.40000000  0.00000000  1.0
  Li+  Li4  1  0.75000000  0.40000000  0.00000000  1.0
  La3+  La5  1  0.00000000  0.00000000  0.00000000  1.0
  La3+  La5  1  0.50000000  0.00000000  0.00000000  1.0
  La3+  La6  1  0.00000000  0.40000000  0.00000000  1.0
  La3+  La6  1  0.50000000  0.40000000  0.00000000  1.0
  La3+  La7  1  0.00000000  0.60000000  0.00000000  1.0
  La3+  La7  1  0.50000000  0.60000000  0.00000000  1.0
  La3+  La8  1  0.25000000  0.20000000  0.00000000  1.0
  La3+  La8  1  0.75000000  0.20000000  0.00000000  1.0
  La3+  La9  1  0.25000000  0.80000000  0.00000000  1.0
  La3+  La9  1  0.75000000  0.80000000  0.00000000  1.0
  Nb5+  Nb1  1  0.12500000  0.10000000  0.25400000  1.0
  Nb5+  Nb1  1  0.62500000  0.10000000  0.25400000  1.0
  Nb5+  Nb1  1  0.12500000  0.30000000  0.25400000  1.0
  Nb5+  Nb1  1  0.62500000  0.30000000  0.25400000  1.0
  Nb5+  Nb1  1  0.12500000  0.50000000  0.25400000  1.0
  Nb5+  Nb1  1  0.62500000  0.50000000  0.25400000  1.0
  Nb5+  Nb1  1  0.12500000  0.70000000  0.25400000  1.0
  Nb5+  Nb1  1  0.62500000  0.70000000  0.25400000  1.0
  Nb5+  Nb1  1  0.12500000  0.90000000  0.25400000  1.0
  Nb5+  Nb1  1  0.62500000  0.90000000  0.25400000  1.0
  Nb5+  Nb1  1  0.37500000  0.10000000  0.25400000  1.0
  Nb5+  Nb1  1  0.87500000  0.10000000  0.25400000  1.0
  Nb5+  Nb1  1  0.37500000  0.30000000  0.25400000  1.0
  Nb5+  Nb1  1  0.87500000  0.30000000  0.25400000  1.0
  Nb5+  Nb1  1  0.37500000  0.50000000  0.25400000  1.0
  Nb5+  Nb1  1  0.87500000  0.50000000  0.25400000  1.0
  Nb5+  Nb1  1  0.37500000  0.70000000  0.25400000  1.0
  Nb5+  Nb1  1  0.87500000  0.70000000  0.25400000  1.0
  Nb5+  Nb1  1  0.37500000  0.90000000  0.25400000  1.0
  Nb5+  Nb1  1  0.87500000  0.90000000  0.25400000  1.0
  Nb5+  Nb1  1  0.12500000  0.10000000  0.74600000  1.0
  Nb5+  Nb1  1  0.62500000  0.10000000  0.74600000  1.0
  Nb5+  Nb1  1  0.12500000  0.30000000  0.74600000  1.0
  Nb5+  Nb1  1  0.62500000  0.30000000  0.74600000  1.0
  Nb5+  Nb1  1  0.12500000  0.50000000  0.74600000  1.0
  Nb5+  Nb1  1  0.62500000  0.50000000  0.74600000  1.0
  Nb5+  Nb1  1  0.12500000  0.70000000  0.74600000  1.0
  Nb5+  Nb1  1  0.62500000  0.70000000  0.74600000  1.0
  Nb5+  Nb1  1  0.12500000  0.90000000  0.74600000  1.0
  Nb5+  Nb1  1  0.62500000  0.90000000  0.74600000  1.0
  Nb5+  Nb1  1  0.37500000  0.10000000  0.74600000  1.0
  Nb5+  Nb1  1  0.87500000  0.10000000  0.74600000  1.0
  Nb5+  Nb1  1  0.37500000  0.30000000  0.74600000  1.0
  Nb5+  Nb1  1  0.87500000  0.30000000  0.74600000  1.0
  Nb5+  Nb1  1  0.37500000  0.50000000  0.74600000  1.0
  Nb5+  Nb1  1  0.87500000  0.50000000  0.74600000  1.0
  Nb5+  Nb1  1  0.37500000  0.70000000  0.74600000  1.0
  Nb5+  Nb1  1  0.87500000  0.70000000  0.74600000  1.0
  Nb5+  Nb1  1  0.37500000  0.90000000  0.74600000  1.0
  Nb5+  Nb1  1  0.87500000  0.90000000  0.74600000  1.0
  O2-  O1  1  0.12500000  0.10000000  0.00000000  1.0
  O2-  O1  1  0.62500000  0.10000000  0.00000000  1.0
  O2-  O1  1  0.12500000  0.30000000  0.00000000  1.0
  O2-  O1  1  0.62500000  0.30000000  0.00000000  1.0
  O2-  O1  1  0.12500000  0.50000000  0.00000000  1.0
  O2-  O1  1  0.62500000  0.50000000  0.00000000  1.0
  O2-  O1  1  0.12500000  0.70000000  0.00000000  1.0
  O2-  O1  1  0.62500000  0.70000000  0.00000000  1.0
  O2-  O1  1  0.12500000  0.90000000  0.00000000  1.0
  O2-  O1  1  0.62500000  0.90000000  0.00000000  1.0
  O2-  O1  1  0.37500000  0.10000000  0.00000000  1.0
  O2-  O1  1  0.87500000  0.10000000  0.00000000  1.0
  O2-  O1  1  0.37500000  0.30000000  0.00000000  1.0
  O2-  O1  1  0.87500000  0.30000000  0.00000000  1.0
  O2-  O1  1  0.37500000  0.50000000  0.00000000  1.0
  O2-  O1  1  0.87500000  0.50000000  0.00000000  1.0
  O2-  O1  1  0.37500000  0.70000000  0.00000000  1.0
  O2-  O1  1  0.87500000  0.70000000  0.00000000  1.0
  O2-  O1  1  0.37500000  0.90000000  0.00000000  1.0
  O2-  O1  1  0.87500000  0.90000000  0.00000000  1.0
  O2-  O2  1  0.12500000  0.10000000  0.50000000  1.0
  O2-  O2  1  0.62500000  0.10000000  0.50000000  1.0
  O2-  O2  1  0.12500000  0.30000000  0.50000000  1.0
  O2-  O2  1  0.62500000  0.30000000  0.50000000  1.0
  O2-  O2  1  0.12500000  0.50000000  0.50000000  1.0
  O2-  O2  1  0.62500000  0.50000000  0.50000000  1.0
  O2-  O2  1  0.12500000  0.70000000  0.50000000  1.0
  O2-  O2  1  0.62500000  0.70000000  0.50000000  1.0
  O2-  O2  1  0.12500000  0.90000000  0.50000000  1.0
  O2-  O2  1  0.62500000  0.90000000  0.50000000  1.0
  O2-  O2  1  0.37500000  0.10000000  0.50000000  1.0
  O2-  O2  1  0.87500000  0.10000000  0.50000000  1.0
  O2-  O2  1  0.37500000  0.30000000  0.50000000  1.0
  O2-  O2  1  0.87500000  0.30000000  0.50000000  1.0
  O2-  O2  1  0.37500000  0.50000000  0.50000000  1.0
  O2-  O2  1  0.87500000  0.50000000  0.50000000  1.0
  O2-  O2  1  0.37500000  0.70000000  0.50000000  1.0
  O2-  O2  1  0.87500000  0.70000000  0.50000000  1.0
  O2-  O2  1  0.37500000  0.90000000  0.50000000  1.0
  O2-  O2  1  0.87500000  0.90000000  0.50000000  1.0
  O2-  O3  1  0.12500000  0.00000000  0.24000000  1.0
  O2-  O3  1  0.62500000  0.00000000  0.24000000  1.0
  O2-  O3  1  0.12500000  0.20000000  0.24000000  1.0
  O2-  O3  1  0.62500000  0.20000000  0.24000000  1.0
  O2-  O3  1  0.12500000  0.40000000  0.24000000  1.0
  O2-  O3  1  0.62500000  0.40000000  0.24000000  1.0
  O2-  O3  1  0.12500000  0.60000000  0.24000000  1.0
  O2-  O3  1  0.62500000  0.60000000  0.24000000  1.0
  O2-  O3  1  0.12500000  0.80000000  0.24000000  1.0
  O2-  O3  1  0.62500000  0.80000000  0.24000000  1.0
  O2-  O3  1  0.37500000  0.00000000  0.24000000  1.0
  O2-  O3  1  0.87500000  0.00000000  0.24000000  1.0
  O2-  O3  1  0.37500000  0.20000000  0.24000000  1.0
  O2-  O3  1  0.87500000  0.20000000  0.24000000  1.0
  O2-  O3  1  0.37500000  0.40000000  0.24000000  1.0
  O2-  O3  1  0.87500000  0.40000000  0.24000000  1.0
  O2-  O3  1  0.37500000  0.60000000  0.24000000  1.0
  O2-  O3  1  0.87500000  0.60000000  0.24000000  1.0
  O2-  O3  1  0.37500000  0.80000000  0.24000000  1.0
  O2-  O3  1  0.87500000  0.80000000  0.24000000  1.0
  O2-  O3  1  0.12500000  0.00000000  0.76000000  1.0
  O2-  O3  1  0.62500000  0.00000000  0.76000000  1.0
  O2-  O3  1  0.12500000  0.20000000  0.76000000  1.0
  O2-  O3  1  0.62500000  0.20000000  0.76000000  1.0
  O2-  O3  1  0.12500000  0.40000000  0.76000000  1.0
  O2-  O3  1  0.62500000  0.40000000  0.76000000  1.0
  O2-  O3  1  0.12500000  0.60000000  0.76000000  1.0
  O2-  O3  1  0.62500000  0.60000000  0.76000000  1.0
  O2-  O3  1  0.12500000  0.80000000  0.76000000  1.0
  O2-  O3  1  0.62500000  0.80000000  0.76000000  1.0
  O2-  O3  1  0.37500000  0.00000000  0.76000000  1.0
  O2-  O3  1  0.87500000  0.00000000  0.76000000  1.0
  O2-  O3  1  0.37500000  0.20000000  0.76000000  1.0
  O2-  O3  1  0.87500000  0.20000000  0.76000000  1.0
  O2-  O3  1  0.37500000  0.40000000  0.76000000  1.0
  O2-  O3  1  0.87500000  0.40000000  0.76000000  1.0
  O2-  O3  1  0.37500000  0.60000000  0.76000000  1.0
  O2-  O3  1  0.87500000  0.60000000  0.76000000  1.0
  O2-  O3  1  0.37500000  0.80000000  0.76000000  1.0
  O2-  O3  1  0.87500000  0.80000000  0.76000000  1.0
  O2-  O4  1  0.00000000  0.10000000  0.21000000  1.0
  O2-  O4  1  0.50000000  0.10000000  0.21000000  1.0
  O2-  O4  1  0.00000000  0.30000000  0.21000000  1.0
  O2-  O4  1  0.50000000  0.30000000  0.21000000  1.0
  O2-  O4  1  0.00000000  0.50000000  0.21000000  1.0
  O2-  O4  1  0.50000000  0.50000000  0.21000000  1.0
  O2-  O4  1  0.00000000  0.70000000  0.21000000  1.0
  O2-  O4  1  0.50000000  0.70000000  0.21000000  1.0
  O2-  O4  1  0.00000000  0.90000000  0.21000000  1.0
  O2-  O4  1  0.50000000  0.90000000  0.21000000  1.0
  O2-  O4  1  0.25000000  0.10000000  0.21000000  1.0
  O2-  O4  1  0.75000000  0.10000000  0.21000000  1.0
  O2-  O4  1  0.25000000  0.30000000  0.21000000  1.0
  O2-  O4  1  0.75000000  0.30000000  0.21000000  1.0
  O2-  O4  1  0.25000000  0.50000000  0.21000000  1.0
  O2-  O4  1  0.75000000  0.50000000  0.21000000  1.0
  O2-  O4  1  0.25000000  0.70000000  0.21000000  1.0
  O2-  O4  1  0.75000000  0.70000000  0.21000000  1.0
  O2-  O4  1  0.25000000  0.90000000  0.21000000  1.0
  O2-  O4  1  0.75000000  0.90000000  0.21000000  1.0
  O2-  O4  1  0.00000000  0.10000000  0.79000000  1.0
  O2-  O4  1  0.50000000  0.10000000  0.79000000  1.0
  O2-  O4  1  0.00000000  0.30000000  0.79000000  1.0
  O2-  O4  1  0.50000000  0.30000000  0.79000000  1.0
  O2-  O4  1  0.00000000  0.50000000  0.79000000  1.0
  O2-  O4  1  0.50000000  0.50000000  0.79000000  1.0
  O2-  O4  1  0.00000000  0.70000000  0.79000000  1.0
  O2-  O4  1  0.50000000  0.70000000  0.79000000  1.0
  O2-  O4  1  0.00000000  0.90000000  0.79000000  1.0
  O2-  O4  1  0.50000000  0.90000000  0.79000000  1.0
  O2-  O4  1  0.25000000  0.10000000  0.79000000  1.0
  O2-  O4  1  0.75000000  0.10000000  0.79000000  1.0
  O2-  O4  1  0.25000000  0.30000000  0.79000000  1.0
  O2-  O4  1  0.75000000  0.30000000  0.79000000  1.0
  O2-  O4  1  0.25000000  0.50000000  0.79000000  1.0
  O2-  O4  1  0.75000000  0.50000000  0.79000000  1.0
  O2-  O4  1  0.25000000  0.70000000  0.79000000  1.0
  O2-  O4  1  0.75000000  0.70000000  0.79000000  1.0
  O2-  O4  1  0.25000000  0.90000000  0.79000000  1.0
  O2-  O4  1  0.75000000  0.90000000  0.79000000  1.0
