# generated using pymatgen
data_Li2CrCl4
_symmetry_space_group_name_H-M   'P 1'
_cell_length_a   14.37831103
_cell_length_b   14.37831103
_cell_length_c   22.33800000
_cell_angle_alpha   118.28915419
_cell_angle_beta   118.28915419
_cell_angle_gamma   90.05635465
_symmetry_Int_Tables_number   1
_chemical_formula_structural   Li2CrCl4
_chemical_formula_sum   'Li48 Cr24 Cl96'
_cell_volume   3425.95053256
_cell_formula_units_Z   24
loop_
 _symmetry_equiv_pos_site_id
 _symmetry_equiv_pos_as_xyz
  1  'x, y, z'
loop_
 _atom_type_symbol
 _atom_type_oxidation_number
  Li+  1.0
  Cr2+  2.0
  Cl-  -1.0
loop_
 _atom_site_type_symbol
 _atom_site_label
 _atom_site_symmetry_multiplicity
 _atom_site_fract_x
 _atom_site_fract_y
 _atom_site_fract_z
 _atom_site_occupancy
  Li+  Li1  1  0.09400000  0.40600000  0.08333333  1.0
  Li+  Li1  1  0.09400000  0.40600000  0.41666667  1.0
  Li+  Li1  1  0.09400000  0.40600000  0.75000000  1.0
  Li+  Li1  1  0.09400000  0.90600000  0.08333333  1.0
  Li+  Li1  1  0.09400000  0.90600000  0.41666667  1.0
  Li+  Li1  1  0.09400000  0.90600000  0.75000000  1.0
  Li+  Li1  1  0.59400000  0.40600000  0.08333333  1.0
  Li+  Li1  1  0.59400000  0.40600000  0.41666667  1.0
  Li+  Li1  1  0.59400000  0.40600000  0.75000000  1.0
  Li+  Li1  1  0.59400000  0.90600000  0.08333333  1.0
  Li+  Li1  1  0.59400000  0.90600000  0.41666667  1.0
  Li+  Li1  1  0.59400000  0.90600000  0.75000000  1.0
  Li+  Li1  1  0.40600000  0.09400000  0.25000000  1.0
  Li+  Li1  1  0.40600000  0.09400000  0.58333333  1.0
  Li+  Li1  1  0.40600000  0.09400000  0.91666667  1.0
  Li+  Li1  1  0.40600000  0.59400000  0.25000000  1.0
  Li+  Li1  1  0.40600000  0.59400000  0.58333333  1.0
  Li+  Li1  1  0.40600000  0.59400000  0.91666667  1.0
  Li+  Li1  1  0.90600000  0.09400000  0.25000000  1.0
  Li+  Li1  1  0.90600000  0.09400000  0.58333333  1.0
  Li+  Li1  1  0.90600000  0.09400000  0.91666667  1.0
  Li+  Li1  1  0.90600000  0.59400000  0.25000000  1.0
  Li+  Li1  1  0.90600000  0.59400000  0.58333333  1.0
  Li+  Li1  1  0.90600000  0.59400000  0.91666667  1.0
  Li+  Li2  1  0.25000000  0.25000000  0.16666667  1.0
  Li+  Li2  1  0.25000000  0.25000000  0.50000000  1.0
  Li+  Li2  1  0.25000000  0.25000000  0.83333333  1.0
  Li+  Li2  1  0.25000000  0.75000000  0.16666667  1.0
  Li+  Li2  1  0.25000000  0.75000000  0.50000000  1.0
  Li+  Li2  1  0.25000000  0.75000000  0.83333333  1.0
  Li+  Li2  1  0.75000000  0.25000000  0.16666667  1.0
  Li+  Li2  1  0.75000000  0.25000000  0.50000000  1.0
  Li+  Li2  1  0.75000000  0.25000000  0.83333333  1.0
  Li+  Li2  1  0.75000000  0.75000000  0.16666667  1.0
  Li+  Li2  1  0.75000000  0.75000000  0.50000000  1.0
  Li+  Li2  1  0.75000000  0.75000000  0.83333333  1.0
  Li+  Li2  1  0.25000000  0.25000000  0.00000000  1.0
  Li+  Li2  1  0.25000000  0.25000000  0.33333333  1.0
  Li+  Li2  1  0.25000000  0.25000000  0.66666667  1.0
  Li+  Li2  1  0.25000000  0.75000000  0.00000000  1.0
  Li+  Li2  1  0.25000000  0.75000000  0.33333333  1.0
  Li+  Li2  1  0.25000000  0.75000000  0.66666667  1.0
  Li+  Li2  1  0.75000000  0.25000000  1.00000000  1.0
  Li+  Li2  1  0.75000000  0.25000000  0.33333333  1.0
  Li+  Li2  1  0.75000000  0.25000000  0.66666667  1.0
  Li+  Li2  1  0.75000000  0.75000000  0.00000000  1.0
  Li+  Li2  1  0.75000000  0.75000000  0.33333333  1.0
  Li+  Li2  1  0.75000000  0.75000000  0.66666667  1.0
  Cr2+  Cr1  1  0.25000000  0.00000000  0.00000000  1.0
  Cr2+  Cr1  1  0.25000000  0.00000000  0.33333333  1.0
  Cr2+  Cr1  1  0.25000000  0.00000000  0.66666667  1.0
  Cr2+  Cr1  1  0.25000000  0.50000000  0.00000000  1.0
  Cr2+  Cr1  1  0.25000000  0.50000000  0.33333333  1.0
  Cr2+  Cr1  1  0.25000000  0.50000000  0.66666667  1.0
  Cr2+  Cr1  1  0.75000000  0.00000000  0.00000000  1.0
  Cr2+  Cr1  1  0.75000000  0.00000000  0.33333333  1.0
  Cr2+  Cr1  1  0.75000000  0.00000000  0.66666667  1.0
  Cr2+  Cr1  1  0.75000000  0.50000000  0.00000000  1.0
  Cr2+  Cr1  1  0.75000000  0.50000000  0.33333333  1.0
  Cr2+  Cr1  1  0.75000000  0.50000000  0.66666667  1.0
  Cr2+  Cr1  1  0.50000000  0.25000000  0.16666667  1.0
  Cr2+  Cr1  1  0.50000000  0.25000000  0.50000000  1.0
  Cr2+  Cr1  1  0.50000000  0.25000000  0.83333333  1.0
  Cr2+  Cr1  1  0.50000000  0.75000000  0.16666667  1.0
  Cr2+  Cr1  1  0.50000000  0.75000000  0.50000000  1.0
  Cr2+  Cr1  1  0.50000000  0.75000000  0.83333333  1.0
  Cr2+  Cr1  1  0.00000000  0.25000000  0.16666667  1.0
  Cr2+  Cr1  1  0.00000000  0.25000000  0.50000000  1.0
  Cr2+  Cr1  1  0.00000000  0.25000000  0.83333333  1.0
  Cr2+  Cr1  1  0.00000000  0.75000000  0.16666667  1.0
  Cr2+  Cr1  1  0.00000000  0.75000000  0.50000000  1.0
  Cr2+  Cr1  1  0.00000000  0.75000000  0.83333333  1.0
  Cl-  Cl1  1  0.37500000  0.13300000  0.16743333  1.0
  Cl-  Cl1  1  0.37500000  0.13300000  0.50076667  1.0
  Cl-  Cl1  1  0.37500000  0.13300000  0.83410000  1.0
  Cl-  Cl1  1  0.37500000  0.63300000  0.16743333  1.0
  Cl-  Cl1  1  0.37500000  0.63300000  0.50076667  1.0
  Cl-  Cl1  1  0.37500000  0.63300000  0.83410000  1.0
  Cl-  Cl1  1  0.87500000  0.13300000  0.16743333  1.0
  Cl-  Cl1  1  0.87500000  0.13300000  0.50076667  1.0
  Cl-  Cl1  1  0.87500000  0.13300000  0.83410000  1.0
  Cl-  Cl1  1  0.87500000  0.63300000  0.16743333  1.0
  Cl-  Cl1  1  0.87500000  0.63300000  0.50076667  1.0
  Cl-  Cl1  1  0.87500000  0.63300000  0.83410000  1.0
  Cl-  Cl1  1  0.13300000  0.37500000  0.00076667  1.0
  Cl-  Cl1  1  0.13300000  0.37500000  0.33410000  1.0
  Cl-  Cl1  1  0.13300000  0.37500000  0.66743333  1.0
  Cl-  Cl1  1  0.13300000  0.87500000  0.00076667  1.0
  Cl-  Cl1  1  0.13300000  0.87500000  0.33410000  1.0
  Cl-  Cl1  1  0.13300000  0.87500000  0.66743333  1.0
  Cl-  Cl1  1  0.63300000  0.37500000  0.00076667  1.0
  Cl-  Cl1  1  0.63300000  0.37500000  0.33410000  1.0
  Cl-  Cl1  1  0.63300000  0.37500000  0.66743333  1.0
  Cl-  Cl1  1  0.63300000  0.87500000  0.00076667  1.0
  Cl-  Cl1  1  0.63300000  0.87500000  0.33410000  1.0
  Cl-  Cl1  1  0.63300000  0.87500000  0.66743333  1.0
  Cl-  Cl1  1  0.12500000  0.36700000  0.16590000  1.0
  Cl-  Cl1  1  0.12500000  0.36700000  0.49923333  1.0
  Cl-  Cl1  1  0.12500000  0.36700000  0.83256667  1.0
  Cl-  Cl1  1  0.12500000  0.86700000  0.16590000  1.0
  Cl-  Cl1  1  0.12500000  0.86700000  0.49923333  1.0
  Cl-  Cl1  1  0.12500000  0.86700000  0.83256667  1.0
  Cl-  Cl1  1  0.62500000  0.36700000  0.16590000  1.0
  Cl-  Cl1  1  0.62500000  0.36700000  0.49923333  1.0
  Cl-  Cl1  1  0.62500000  0.36700000  0.83256667  1.0
  Cl-  Cl1  1  0.62500000  0.86700000  0.16590000  1.0
  Cl-  Cl1  1  0.62500000  0.86700000  0.49923333  1.0
  Cl-  Cl1  1  0.62500000  0.86700000  0.83256667  1.0
  Cl-  Cl1  1  0.36700000  0.12500000  0.33256667  1.0
  Cl-  Cl1  1  0.36700000  0.12500000  0.66590000  1.0
  Cl-  Cl1  1  0.36700000  0.12500000  0.99923333  1.0
  Cl-  Cl1  1  0.36700000  0.62500000  0.33256667  1.0
  Cl-  Cl1  1  0.36700000  0.62500000  0.66590000  1.0
  Cl-  Cl1  1  0.36700000  0.62500000  0.99923333  1.0
  Cl-  Cl1  1  0.86700000  0.12500000  0.33256667  1.0
  Cl-  Cl1  1  0.86700000  0.12500000  0.66590000  1.0
  Cl-  Cl1  1  0.86700000  0.12500000  0.99923333  1.0
  Cl-  Cl1  1  0.86700000  0.62500000  0.33256667  1.0
  Cl-  Cl1  1  0.86700000  0.62500000  0.66590000  1.0
  Cl-  Cl1  1  0.86700000  0.62500000  0.99923333  1.0
  Cl-  Cl2  1  0.12335000  0.13065000  0.16606667  1.0
  Cl-  Cl2  1  0.12335000  0.13065000  0.49940000  1.0
  Cl-  Cl2  1  0.12335000  0.13065000  0.83273333  1.0
  Cl-  Cl2  1  0.12335000  0.63065000  0.16606667  1.0
  Cl-  Cl2  1  0.12335000  0.63065000  0.49940000  1.0
  Cl-  Cl2  1  0.12335000  0.63065000  0.83273333  1.0
  Cl-  Cl2  1  0.62335000  0.13065000  0.16606667  1.0
  Cl-  Cl2  1  0.62335000  0.13065000  0.49940000  1.0
  Cl-  Cl2  1  0.62335000  0.13065000  0.83273333  1.0
  Cl-  Cl2  1  0.62335000  0.63065000  0.16606667  1.0
  Cl-  Cl2  1  0.62335000  0.63065000  0.49940000  1.0
  Cl-  Cl2  1  0.62335000  0.63065000  0.83273333  1.0
  Cl-  Cl2  1  0.13065000  0.12335000  0.33273333  1.0
  Cl-  Cl2  1  0.13065000  0.12335000  0.66606667  1.0
  Cl-  Cl2  1  0.13065000  0.12335000  0.99940000  1.0
  Cl-  Cl2  1  0.13065000  0.62335000  0.33273333  1.0
  Cl-  Cl2  1  0.13065000  0.62335000  0.66606667  1.0
  Cl-  Cl2  1  0.13065000  0.62335000  0.99940000  1.0
  Cl-  Cl2  1  0.63065000  0.12335000  0.33273333  1.0
  Cl-  Cl2  1  0.63065000  0.12335000  0.66606667  1.0
  Cl-  Cl2  1  0.63065000  0.12335000  0.99940000  1.0
  Cl-  Cl2  1  0.63065000  0.62335000  0.33273333  1.0
  Cl-  Cl2  1  0.63065000  0.62335000  0.66606667  1.0
  Cl-  Cl2  1  0.63065000  0.62335000  0.99940000  1.0
  Cl-  Cl2  1  0.37665000  0.36935000  0.16726667  1.0
  Cl-  Cl2  1  0.37665000  0.36935000  0.50060000  1.0
  Cl-  Cl2  1  0.37665000  0.36935000  0.83393333  1.0
  Cl-  Cl2  1  0.37665000  0.86935000  0.16726667  1.0
  Cl-  Cl2  1  0.37665000  0.86935000  0.50060000  1.0
  Cl-  Cl2  1  0.37665000  0.86935000  0.83393333  1.0
  Cl-  Cl2  1  0.87665000  0.36935000  0.16726667  1.0
  Cl-  Cl2  1  0.87665000  0.36935000  0.50060000  1.0
  Cl-  Cl2  1  0.87665000  0.36935000  0.83393333  1.0
  Cl-  Cl2  1  0.87665000  0.86935000  0.16726667  1.0
  Cl-  Cl2  1  0.87665000  0.86935000  0.50060000  1.0
  Cl-  Cl2  1  0.87665000  0.86935000  0.83393333  1.0
  Cl-  Cl2  1  0.36935000  0.37665000  0.00060000  1.0
  Cl-  Cl2  1  0.36935000  0.37665000  0.33393333  1.0
  Cl-  Cl2  1  0.36935000  0.37665000  0.66726667  1.0
  Cl-  Cl2  1  0.36935000  0.87665000  0.00060000  1.0
  Cl-  Cl2  1  0.36935000  0.87665000  0.33393333  1.0
  Cl-  Cl2  1  0.36935000  0.87665000  0.66726667  1.0
  Cl-  Cl2  1  0.86935000  0.37665000  0.00060000  1.0
  Cl-  Cl2  1  0.86935000  0.37665000  0.33393333  1.0
  Cl-  Cl2  1  0.86935000  0.37665000  0.66726667  1.0
  Cl-  Cl2  1  0.86935000  0.87665000  0.00060000  1.0
  Cl-  Cl2  1  0.86935000  0.87665000  0.33393333  1.0
  Cl-  Cl2  1  0.86935000  0.87665000  0.66726667  1.0
