# generated using pymatgen
data_Li3AlN2
_symmetry_space_group_name_H-M   'P 1'
_cell_length_a   16.37636718
_cell_length_b   8.18818359
_cell_length_c   16.37636718
_cell_angle_alpha   109.47122063
_cell_angle_beta   70.52877937
_cell_angle_gamma   70.52877937
_symmetry_Int_Tables_number   1
_chemical_formula_structural   Li3AlN2
_chemical_formula_sum   'Li96 Al32 N64'
_cell_volume   1690.44410523
_cell_formula_units_Z   32
loop_
 _symmetry_equiv_pos_site_id
 _symmetry_equiv_pos_as_xyz
  1  'x, y, z'
loop_
 _atom_type_symbol
 _atom_type_oxidation_number
  Li+  1.0
  Al3+  3.0
  N3-  -3.0
loop_
 _atom_site_type_symbol
 _atom_site_label
 _atom_site_symmetry_multiplicity
 _atom_site_fract_x
 _atom_site_fract_y
 _atom_site_fract_z
 _atom_site_occupancy
  Li+  Li0  1  0.44941500  0.75044000  0.57863500  1.0
  Li+  Li1  1  0.44911489  0.75109129  0.07899065  1.0
  Li+  Li2  1  0.94941500  0.75044000  0.57863500  1.0
  Li+  Li3  1  0.94941500  0.75044000  0.07863500  1.0
  Li+  Li4  1  0.20341500  0.44390000  0.67136500  1.0
  Li+  Li5  1  0.20341500  0.44390000  0.17136500  1.0
  Li+  Li6  1  0.70341500  0.44390000  0.67136500  1.0
  Li+  Li7  1  0.70341500  0.44390000  0.17136500  1.0
  Li+  Li8  1  0.30058500  0.05610000  0.57463500  1.0
  Li+  Li9  1  0.30058500  0.05610000  0.07463500  1.0
  Li+  Li10  1  0.79913775  0.05625206  0.57256631  1.0
  Li+  Li11  1  0.80058500  0.05610000  0.07463500  1.0
  Li+  Li12  1  0.04658500  0.74956000  0.67536500  1.0
  Li+  Li13  1  0.04658500  0.74956000  0.17536500  1.0
  Li+  Li14  1  0.54658500  0.74956000  0.67536500  1.0
  Li+  Li15  1  0.54455721  0.74592306  0.18088697  1.0
  Li+  Li16  1  0.32463500  0.90683000  0.37478000  1.0
  Li+  Li17  1  0.32463500  0.90683000  0.87478000  1.0
  Li+  Li18  1  0.82463500  0.90683000  0.37478000  1.0
  Li+  Li19  1  0.82625276  0.90880894  0.87173175  1.0
  Li+  Li20  1  0.42674936  0.39887637  0.53090500  1.0
  Li+  Li21  1  0.42819263  0.39926324  0.02786386  1.0
  Li+  Li22  1  0.92548547  0.39699974  0.53183463  1.0
  Li+  Li23  1  0.92536500  0.39883000  0.02805000  1.0
  Li+  Li24  1  0.32863500  0.59317000  0.72195000  1.0
  Li+  Li25  1  0.32844629  0.59230231  0.22487734  1.0
  Li+  Li26  1  0.82865745  0.59362527  0.72596608  1.0
  Li+  Li27  1  0.82863500  0.59317000  0.22195000  1.0
  Li+  Li28  1  0.42136500  0.10117000  0.37522000  1.0
  Li+  Li29  1  0.42136500  0.10117000  0.87522000  1.0
  Li+  Li30  1  0.91721187  0.10412849  0.37847082  1.0
  Li+  Li31  1  0.92136500  0.10117000  0.87522000  1.0
  Li+  Li32  1  0.27805000  0.34273000  0.29658500  1.0
  Li+  Li33  1  0.27805000  0.34273000  0.79658500  1.0
  Li+  Li34  1  0.77805000  0.34273000  0.29658500  1.0
  Li+  Li35  1  0.77805000  0.34273000  0.79658500  1.0
  Li+  Li36  1  0.12478000  0.15727000  0.55058500  1.0
  Li+  Li37  1  0.12478000  0.15727000  0.05058500  1.0
  Li+  Li38  1  0.62602098  0.15865610  0.54916854  1.0
  Li+  Li39  1  0.62478000  0.15727000  0.05058500  1.0
  Li+  Li40  1  0.12781251  0.34612165  0.45433006  1.0
  Li+  Li41  1  0.12522000  0.35073000  0.95341500  1.0
  Li+  Li42  1  0.62522000  0.35073000  0.45341500  1.0
  Li+  Li43  1  0.62829623  0.35203404  0.95366922  1.0
  Li+  Li44  1  0.47195000  0.14927000  0.69941500  1.0
  Li+  Li45  1  0.47195000  0.14927000  0.19941500  1.0
  Li+  Li46  1  0.97195000  0.14927000  0.69941500  1.0
  Li+  Li47  1  0.97195000  0.14927000  0.19941500  1.0
  Li+  Li48  1  0.05320164  0.25625417  0.42229052  1.0
  Li+  Li49  1  0.05080111  0.25039634  0.92220934  1.0
  Li+  Li50  1  0.55058500  0.24956000  0.42136500  1.0
  Li+  Li51  1  0.55058500  0.24956000  0.92136500  1.0
  Li+  Li52  1  0.29658500  0.55610000  0.32863500  1.0
  Li+  Li53  1  0.29658500  0.55610000  0.82863500  1.0
  Li+  Li54  1  0.79658500  0.55610000  0.32863500  1.0
  Li+  Li55  1  0.79658500  0.55610000  0.82863500  1.0
  Li+  Li56  1  0.19941500  0.94390000  0.42536500  1.0
  Li+  Li57  1  0.20039546  0.94782930  0.92239927  1.0
  Li+  Li58  1  0.69941500  0.94390000  0.42536500  1.0
  Li+  Li59  1  0.69456387  0.94315279  0.92135008  1.0
  Li+  Li60  1  0.45341500  0.25044000  0.32463500  1.0
  Li+  Li61  1  0.44837329  0.25097473  0.82337535  1.0
  Li+  Li62  1  0.95341500  0.25044000  0.32463500  1.0
  Li+  Li63  1  0.95341500  0.25044000  0.82463500  1.0
  Li+  Li64  1  0.17536500  0.09317000  0.62522000  1.0
  Li+  Li65  1  0.18231252  0.09173321  0.12598915  1.0
  Li+  Li66  1  0.67536500  0.09317000  0.62522000  1.0
  Li+  Li67  1  0.67428696  0.09223635  0.12682617  1.0
  Li+  Li68  1  0.07463500  0.60117000  0.47195000  1.0
  Li+  Li69  1  0.07367365  0.60464285  0.97648044  1.0
  Li+  Li70  1  0.57463500  0.60117000  0.47195000  1.0
  Li+  Li71  1  0.57463500  0.60117000  0.97195000  1.0
  Li+  Li72  1  0.17136500  0.40683000  0.27805000  1.0
  Li+  Li73  1  0.17136500  0.40683000  0.77805000  1.0
  Li+  Li74  1  0.67100111  0.40538271  0.27676298  1.0
  Li+  Li75  1  0.67136500  0.40683000  0.77805000  1.0
  Li+  Li76  1  0.07863500  0.89883000  0.62478000  1.0
  Li+  Li77  1  0.07863500  0.89883000  0.12478000  1.0
  Li+  Li78  1  0.57863500  0.89883000  0.62478000  1.0
  Li+  Li79  1  0.57863500  0.89883000  0.12478000  1.0
  Li+  Li80  1  0.21618494  0.65275276  0.70587221  1.0
  Li+  Li81  1  0.22321330  0.65909360  0.20586661  1.0
  Li+  Li82  1  0.72195000  0.65727000  0.70341500  1.0
  Li+  Li83  1  0.72195000  0.65727000  0.20341500  1.0
  Li+  Li84  1  0.37522000  0.84273000  0.44941500  1.0
  Li+  Li85  1  0.37522000  0.84273000  0.94941500  1.0
  Li+  Li86  1  0.87522000  0.84273000  0.44941500  1.0
  Li+  Li87  1  0.87522000  0.84273000  0.94941500  1.0
  Li+  Li88  1  0.37478000  0.64927000  0.54658500  1.0
  Li+  Li89  1  0.37478000  0.64927000  0.04658500  1.0
  Li+  Li90  1  0.87373279  0.65263208  0.54364981  1.0
  Li+  Li91  1  0.87478000  0.64927000  0.04658500  1.0
  Li+  Li92  1  0.02722365  0.85006523  0.30110614  1.0
  Li+  Li93  1  0.02805000  0.85073000  0.80058500  1.0
  Li+  Li94  1  0.52454741  0.84941314  0.30249610  1.0
  Li+  Li95  1  0.52805000  0.85073000  0.80058500  1.0
  Al3+  Al96  1  0.50007076  0.49946333  0.61674648  1.0
  Al3+  Al97  1  0.50000000  0.50000000  0.11723000  1.0
  Al3+  Al98  1  0.00000000  0.50000000  0.61723000  1.0
  Al3+  Al99  1  0.99720598  0.49599100  0.11203193  1.0
  Al3+  Al100  1  0.36723000  0.26554000  0.63277000  1.0
  Al3+  Al101  1  0.36723000  0.26554000  0.13277000  1.0
  Al3+  Al102  1  0.86610919  0.26591037  0.63365945  1.0
  Al3+  Al103  1  0.86723000  0.26554000  0.13277000  1.0
  Al3+  Al104  1  0.25000000  0.23446000  0.50000000  1.0
  Al3+  Al105  1  0.25000000  0.23446000  0.00000000  1.0
  Al3+  Al106  1  0.74813913  0.23634074  0.50301659  1.0
  Al3+  Al107  1  0.75000000  0.23446000  0.00000000  1.0
  Al3+  Al108  1  0.38518901  0.00188586  0.75150841  1.0
  Al3+  Al109  1  0.38277000  0.00000000  0.25000000  1.0
  Al3+  Al110  1  0.88277000  0.00000000  0.75000000  1.0
  Al3+  Al111  1  0.88299662  0.00206101  0.25654929  1.0
  Al3+  Al112  1  0.50000000  0.50000000  0.38277000  1.0
  Al3+  Al113  1  0.49930876  0.50002592  0.88334262  1.0
  Al3+  Al114  1  0.00000000  0.50000000  0.38277000  1.0
  Al3+  Al115  1  0.00000000  0.50000000  0.88277000  1.0
  Al3+  Al116  1  0.13277000  0.73446000  0.36723000  1.0
  Al3+  Al117  1  0.13277000  0.73446000  0.86723000  1.0
  Al3+  Al118  1  0.63277000  0.73446000  0.36723000  1.0
  Al3+  Al119  1  0.63277000  0.73446000  0.86723000  1.0
  Al3+  Al120  1  0.25000000  0.76554000  0.50000000  1.0
  Al3+  Al121  1  0.24464417  0.76630706  0.00096238  1.0
  Al3+  Al122  1  0.75000000  0.76554000  0.50000000  1.0
  Al3+  Al123  1  0.75000000  0.76554000  0.00000000  1.0
  Al3+  Al124  1  0.11550765  0.00148989  0.74958143  1.0
  Al3+  Al125  1  0.11723000  0.00000000  0.25000000  1.0
  Al3+  Al126  1  0.61723000  0.00000000  0.75000000  1.0
  Al3+  Al127  1  0.61723000  0.00000000  0.25000000  1.0
  N3-  N128  1  0.00000000  0.50000000  0.50000000  1.0
  N3-  N129  1  0.00000000  0.50000000  0.00000000  1.0
  N3-  N130  1  0.49798810  0.50387663  0.49939229  1.0
  N3-  N131  1  0.50000000  0.50000000  0.00000000  1.0
  N3-  N132  1  0.25000000  0.50000000  0.75000000  1.0
  N3-  N133  1  0.25000000  0.50000000  0.25000000  1.0
  N3-  N134  1  0.75000000  0.50000000  0.75000000  1.0
  N3-  N135  1  0.74871199  0.49772369  0.24988469  1.0
  N3-  N136  1  0.25000000  0.00000000  0.50000000  1.0
  N3-  N137  1  0.25000000  0.00000000  0.00000000  1.0
  N3-  N138  1  0.75000000  0.00000000  0.50000000  1.0
  N3-  N139  1  0.75000000  0.00000000  0.00000000  1.0
  N3-  N140  1  0.00000000  0.00000000  0.75000000  1.0
  N3-  N141  1  0.00000000  0.00000000  0.25000000  1.0
  N3-  N142  1  0.50000000  0.00000000  0.75000000  1.0
  N3-  N143  1  0.50000000  0.00000000  0.25000000  1.0
  N3-  N144  1  0.48488500  0.28023000  0.62500000  1.0
  N3-  N145  1  0.48488500  0.28023000  0.12500000  1.0
  N3-  N146  1  0.98531843  0.28226751  0.63100101  1.0
  N3-  N147  1  0.98488500  0.28023000  0.12500000  1.0
  N3-  N148  1  0.26511500  0.21977000  0.37500000  1.0
  N3-  N149  1  0.26511500  0.21977000  0.87500000  1.0
  N3-  N150  1  0.76511500  0.21977000  0.37500000  1.0
  N3-  N151  1  0.76511500  0.21977000  0.87500000  1.0
  N3-  N152  1  0.12500000  0.46977000  0.60988500  1.0
  N3-  N153  1  0.12500000  0.46977000  0.10988500  1.0
  N3-  N154  1  0.62238756  0.46943822  0.61187989  1.0
  N3-  N155  1  0.62500000  0.46977000  0.10988500  1.0
  N3-  N156  1  0.37500000  0.03023000  0.64011500  1.0
  N3-  N157  1  0.37500000  0.03023000  0.14011500  1.0
  N3-  N158  1  0.87500000  0.03023000  0.64011500  1.0
  N3-  N159  1  0.87500000  0.03023000  0.14011500  1.0
  N3-  N160  1  0.35988500  0.25000000  0.51511500  1.0
  N3-  N161  1  0.35988500  0.25000000  0.01511500  1.0
  N3-  N162  1  0.85988500  0.25000000  0.51511500  1.0
  N3-  N163  1  0.85988500  0.25000000  0.01511500  1.0
  N3-  N164  1  0.39011500  0.75000000  0.73488500  1.0
  N3-  N165  1  0.38879404  0.75083684  0.23879579  1.0
  N3-  N166  1  0.89011500  0.75000000  0.73488500  1.0
  N3-  N167  1  0.89011500  0.75000000  0.23488500  1.0
  N3-  N168  1  0.01511500  0.71977000  0.37500000  1.0
  N3-  N169  1  0.01760695  0.71961552  0.86879137  1.0
  N3-  N170  1  0.51511500  0.71977000  0.37500000  1.0
  N3-  N171  1  0.51511500  0.71977000  0.87500000  1.0
  N3-  N172  1  0.23488500  0.78023000  0.62500000  1.0
  N3-  N173  1  0.23292603  0.78385517  0.12078882  1.0
  N3-  N174  1  0.73420260  0.78162677  0.62197880  1.0
  N3-  N175  1  0.73156786  0.77967943  0.12092923  1.0
  N3-  N176  1  0.37500000  0.53023000  0.39011500  1.0
  N3-  N177  1  0.37500000  0.53023000  0.89011500  1.0
  N3-  N178  1  0.87500000  0.53023000  0.39011500  1.0
  N3-  N179  1  0.87463582  0.52966383  0.89135168  1.0
  N3-  N180  1  0.12500000  0.96977000  0.35988500  1.0
  N3-  N181  1  0.12500000  0.96977000  0.85988500  1.0
  N3-  N182  1  0.62500000  0.96977000  0.35988500  1.0
  N3-  N183  1  0.62114225  0.96892634  0.86046942  1.0
  N3-  N184  1  0.14011500  0.75000000  0.48488500  1.0
  N3-  N185  1  0.14011500  0.75000000  0.98488500  1.0
  N3-  N186  1  0.64011500  0.75000000  0.48488500  1.0
  N3-  N187  1  0.64011500  0.75000000  0.98488500  1.0
  N3-  N188  1  0.10988500  0.25000000  0.26511500  1.0
  N3-  N189  1  0.10988500  0.25000000  0.76511500  1.0
  N3-  N190  1  0.61091057  0.24803626  0.26446546  1.0
  N3-  N191  1  0.60988500  0.25000000  0.76511500  1.0
