# generated using pymatgen
data_Li3AlN2
_symmetry_space_group_name_H-M   'P 1'
_cell_length_a   16.37636718
_cell_length_b   16.37636718
_cell_length_c   8.18818359
_cell_angle_alpha   109.47122063
_cell_angle_beta   109.47122063
_cell_angle_gamma   109.47122063
_symmetry_Int_Tables_number   1
_chemical_formula_structural   Li3AlN2
_chemical_formula_sum   'Li96 Al32 N64'
_cell_volume   1690.44410523
_cell_formula_units_Z   32
loop_
 _symmetry_equiv_pos_site_id
 _symmetry_equiv_pos_as_xyz
  1  'x, y, z'
loop_
 _atom_type_symbol
 _atom_type_oxidation_number
  Li+  1.0
  Al3+  3.0
  N3-  -3.0
loop_
 _atom_site_type_symbol
 _atom_site_label
 _atom_site_symmetry_multiplicity
 _atom_site_fract_x
 _atom_site_fract_y
 _atom_site_fract_z
 _atom_site_occupancy
  Li+  Li1  1  0.44941500  0.17136500  0.24956000  1.0
  Li+  Li1  1  0.44941500  0.67136500  0.24956000  1.0
  Li+  Li1  1  0.94941500  0.17136500  0.24956000  1.0
  Li+  Li1  1  0.94941500  0.67136500  0.24956000  1.0
  Li+  Li1  1  0.20341500  0.07863500  0.55610000  1.0
  Li+  Li1  1  0.20341500  0.57863500  0.55610000  1.0
  Li+  Li1  1  0.70341500  0.07863500  0.55610000  1.0
  Li+  Li1  1  0.70341500  0.57863500  0.55610000  1.0
  Li+  Li1  1  0.30058500  0.17536500  0.94390000  1.0
  Li+  Li1  1  0.30058500  0.67536500  0.94390000  1.0
  Li+  Li1  1  0.80058500  0.17536500  0.94390000  1.0
  Li+  Li1  1  0.80058500  0.67536500  0.94390000  1.0
  Li+  Li1  1  0.04658500  0.07463500  0.25044000  1.0
  Li+  Li1  1  0.04658500  0.57463500  0.25044000  1.0
  Li+  Li1  1  0.54658500  0.07463500  0.25044000  1.0
  Li+  Li1  1  0.54658500  0.57463500  0.25044000  1.0
  Li+  Li1  1  0.32463500  0.37522000  0.09317000  1.0
  Li+  Li1  1  0.32463500  0.87522000  0.09317000  1.0
  Li+  Li1  1  0.82463500  0.37522000  0.09317000  1.0
  Li+  Li1  1  0.82463500  0.87522000  0.09317000  1.0
  Li+  Li1  1  0.42536500  0.22195000  0.60117000  1.0
  Li+  Li1  1  0.42536500  0.72195000  0.60117000  1.0
  Li+  Li1  1  0.92536500  0.22195000  0.60117000  1.0
  Li+  Li1  1  0.92536500  0.72195000  0.60117000  1.0
  Li+  Li1  1  0.32863500  0.02805000  0.40683000  1.0
  Li+  Li1  1  0.32863500  0.52805000  0.40683000  1.0
  Li+  Li1  1  0.82863500  0.02805000  0.40683000  1.0
  Li+  Li1  1  0.82863500  0.52805000  0.40683000  1.0
  Li+  Li1  1  0.42136500  0.37478000  0.89883000  1.0
  Li+  Li1  1  0.42136500  0.87478000  0.89883000  1.0
  Li+  Li1  1  0.92136500  0.37478000  0.89883000  1.0
  Li+  Li1  1  0.92136500  0.87478000  0.89883000  1.0
  Li+  Li1  1  0.27805000  0.45341500  0.65727000  1.0
  Li+  Li1  1  0.27805000  0.95341500  0.65727000  1.0
  Li+  Li1  1  0.77805000  0.45341500  0.65727000  1.0
  Li+  Li1  1  0.77805000  0.95341500  0.65727000  1.0
  Li+  Li1  1  0.12478000  0.19941500  0.84273000  1.0
  Li+  Li1  1  0.12478000  0.69941500  0.84273000  1.0
  Li+  Li1  1  0.62478000  0.19941500  0.84273000  1.0
  Li+  Li1  1  0.62478000  0.69941500  0.84273000  1.0
  Li+  Li1  1  0.12522000  0.29658500  0.64927000  1.0
  Li+  Li1  1  0.12522000  0.79658500  0.64927000  1.0
  Li+  Li1  1  0.62522000  0.29658500  0.64927000  1.0
  Li+  Li1  1  0.62522000  0.79658500  0.64927000  1.0
  Li+  Li1  1  0.47195000  0.05058500  0.85073000  1.0
  Li+  Li1  1  0.47195000  0.55058500  0.85073000  1.0
  Li+  Li1  1  0.97195000  0.05058500  0.85073000  1.0
  Li+  Li1  1  0.97195000  0.55058500  0.85073000  1.0
  Li+  Li1  1  0.05058500  0.32863500  0.75044000  1.0
  Li+  Li1  1  0.05058500  0.82863500  0.75044000  1.0
  Li+  Li1  1  0.55058500  0.32863500  0.75044000  1.0
  Li+  Li1  1  0.55058500  0.82863500  0.75044000  1.0
  Li+  Li1  1  0.29658500  0.42136500  0.44390000  1.0
  Li+  Li1  1  0.29658500  0.92136500  0.44390000  1.0
  Li+  Li1  1  0.79658500  0.42136500  0.44390000  1.0
  Li+  Li1  1  0.79658500  0.92136500  0.44390000  1.0
  Li+  Li1  1  0.19941500  0.32463500  0.05610000  1.0
  Li+  Li1  1  0.19941500  0.82463500  0.05610000  1.0
  Li+  Li1  1  0.69941500  0.32463500  0.05610000  1.0
  Li+  Li1  1  0.69941500  0.82463500  0.05610000  1.0
  Li+  Li1  1  0.45341500  0.42536500  0.74956000  1.0
  Li+  Li1  1  0.45341500  0.92536500  0.74956000  1.0
  Li+  Li1  1  0.95341500  0.42536500  0.74956000  1.0
  Li+  Li1  1  0.95341500  0.92536500  0.74956000  1.0
  Li+  Li1  1  0.17536500  0.12478000  0.90683000  1.0
  Li+  Li1  1  0.17536500  0.62478000  0.90683000  1.0
  Li+  Li1  1  0.67536500  0.12478000  0.90683000  1.0
  Li+  Li1  1  0.67536500  0.62478000  0.90683000  1.0
  Li+  Li1  1  0.07463500  0.27805000  0.39883000  1.0
  Li+  Li1  1  0.07463500  0.77805000  0.39883000  1.0
  Li+  Li1  1  0.57463500  0.27805000  0.39883000  1.0
  Li+  Li1  1  0.57463500  0.77805000  0.39883000  1.0
  Li+  Li1  1  0.17136500  0.47195000  0.59317000  1.0
  Li+  Li1  1  0.17136500  0.97195000  0.59317000  1.0
  Li+  Li1  1  0.67136500  0.47195000  0.59317000  1.0
  Li+  Li1  1  0.67136500  0.97195000  0.59317000  1.0
  Li+  Li1  1  0.07863500  0.12522000  0.10117000  1.0
  Li+  Li1  1  0.07863500  0.62522000  0.10117000  1.0
  Li+  Li1  1  0.57863500  0.12522000  0.10117000  1.0
  Li+  Li1  1  0.57863500  0.62522000  0.10117000  1.0
  Li+  Li1  1  0.22195000  0.04658500  0.34273000  1.0
  Li+  Li1  1  0.22195000  0.54658500  0.34273000  1.0
  Li+  Li1  1  0.72195000  0.04658500  0.34273000  1.0
  Li+  Li1  1  0.72195000  0.54658500  0.34273000  1.0
  Li+  Li1  1  0.37522000  0.30058500  0.15727000  1.0
  Li+  Li1  1  0.37522000  0.80058500  0.15727000  1.0
  Li+  Li1  1  0.87522000  0.30058500  0.15727000  1.0
  Li+  Li1  1  0.87522000  0.80058500  0.15727000  1.0
  Li+  Li1  1  0.37478000  0.20341500  0.35073000  1.0
  Li+  Li1  1  0.37478000  0.70341500  0.35073000  1.0
  Li+  Li1  1  0.87478000  0.20341500  0.35073000  1.0
  Li+  Li1  1  0.87478000  0.70341500  0.35073000  1.0
  Li+  Li1  1  0.02805000  0.44941500  0.14927000  1.0
  Li+  Li1  1  0.02805000  0.94941500  0.14927000  1.0
  Li+  Li1  1  0.52805000  0.44941500  0.14927000  1.0
  Li+  Li1  1  0.52805000  0.94941500  0.14927000  1.0
  Al3+  Al1  1  0.50000000  0.13277000  0.50000000  1.0
  Al3+  Al1  1  0.50000000  0.63277000  0.50000000  1.0
  Al3+  Al1  1  0.00000000  0.13277000  0.50000000  1.0
  Al3+  Al1  1  0.00000000  0.63277000  0.50000000  1.0
  Al3+  Al1  1  0.36723000  0.11723000  0.73446000  1.0
  Al3+  Al1  1  0.36723000  0.61723000  0.73446000  1.0
  Al3+  Al1  1  0.86723000  0.11723000  0.73446000  1.0
  Al3+  Al1  1  0.86723000  0.61723000  0.73446000  1.0
  Al3+  Al1  1  0.25000000  0.25000000  0.76554000  1.0
  Al3+  Al1  1  0.25000000  0.75000000  0.76554000  1.0
  Al3+  Al1  1  0.75000000  0.25000000  0.76554000  1.0
  Al3+  Al1  1  0.75000000  0.75000000  0.76554000  1.0
  Al3+  Al1  1  0.38277000  0.00000000  0.00000000  1.0
  Al3+  Al1  1  0.38277000  0.50000000  1.00000000  1.0
  Al3+  Al1  1  0.88277000  0.00000000  0.00000000  1.0
  Al3+  Al1  1  0.88277000  0.50000000  0.00000000  1.0
  Al3+  Al1  1  0.50000000  0.36723000  0.50000000  1.0
  Al3+  Al1  1  0.50000000  0.86723000  0.50000000  1.0
  Al3+  Al1  1  0.00000000  0.36723000  0.50000000  1.0
  Al3+  Al1  1  0.00000000  0.86723000  0.50000000  1.0
  Al3+  Al1  1  0.13277000  0.38277000  0.26554000  1.0
  Al3+  Al1  1  0.13277000  0.88277000  0.26554000  1.0
  Al3+  Al1  1  0.63277000  0.38277000  0.26554000  1.0
  Al3+  Al1  1  0.63277000  0.88277000  0.26554000  1.0
  Al3+  Al1  1  0.25000000  0.25000000  0.23446000  1.0
  Al3+  Al1  1  0.25000000  0.75000000  0.23446000  1.0
  Al3+  Al1  1  0.75000000  0.25000000  0.23446000  1.0
  Al3+  Al1  1  0.75000000  0.75000000  0.23446000  1.0
  Al3+  Al1  1  0.11723000  0.00000000  0.00000000  1.0
  Al3+  Al1  1  0.11723000  0.50000000  1.00000000  1.0
  Al3+  Al1  1  0.61723000  0.00000000  0.00000000  1.0
  Al3+  Al1  1  0.61723000  0.50000000  0.00000000  1.0
  N3-  N1  1  0.00000000  0.25000000  0.50000000  1.0
  N3-  N1  1  0.00000000  0.75000000  0.50000000  1.0
  N3-  N1  1  0.50000000  0.25000000  0.50000000  1.0
  N3-  N1  1  0.50000000  0.75000000  0.50000000  1.0
  N3-  N1  1  0.25000000  0.00000000  0.50000000  1.0
  N3-  N1  1  0.25000000  0.50000000  0.50000000  1.0
  N3-  N1  1  0.75000000  0.00000000  0.50000000  1.0
  N3-  N1  1  0.75000000  0.50000000  0.50000000  1.0
  N3-  N1  1  0.25000000  0.25000000  0.00000000  1.0
  N3-  N1  1  0.25000000  0.75000000  1.00000000  1.0
  N3-  N1  1  0.75000000  0.25000000  0.00000000  1.0
  N3-  N1  1  0.75000000  0.75000000  1.00000000  1.0
  N3-  N1  1  0.00000000  0.00000000  0.00000000  1.0
  N3-  N1  1  0.00000000  0.50000000  1.00000000  1.0
  N3-  N1  1  0.50000000  0.00000000  0.00000000  1.0
  N3-  N1  1  0.50000000  0.50000000  1.00000000  1.0
  N3-  N2  1  0.48488500  0.12500000  0.71977000  1.0
  N3-  N2  1  0.48488500  0.62500000  0.71977000  1.0
  N3-  N2  1  0.98488500  0.12500000  0.71977000  1.0
  N3-  N2  1  0.98488500  0.62500000  0.71977000  1.0
  N3-  N2  1  0.26511500  0.37500000  0.78023000  1.0
  N3-  N2  1  0.26511500  0.87500000  0.78023000  1.0
  N3-  N2  1  0.76511500  0.37500000  0.78023000  1.0
  N3-  N2  1  0.76511500  0.87500000  0.78023000  1.0
  N3-  N2  1  0.12500000  0.14011500  0.53023000  1.0
  N3-  N2  1  0.12500000  0.64011500  0.53023000  1.0
  N3-  N2  1  0.62500000  0.14011500  0.53023000  1.0
  N3-  N2  1  0.62500000  0.64011500  0.53023000  1.0
  N3-  N2  1  0.37500000  0.10988500  0.96977000  1.0
  N3-  N2  1  0.37500000  0.60988500  0.96977000  1.0
  N3-  N2  1  0.87500000  0.10988500  0.96977000  1.0
  N3-  N2  1  0.87500000  0.60988500  0.96977000  1.0
  N3-  N2  1  0.35988500  0.23488500  0.75000000  1.0
  N3-  N2  1  0.35988500  0.73488500  0.75000000  1.0
  N3-  N2  1  0.85988500  0.23488500  0.75000000  1.0
  N3-  N2  1  0.85988500  0.73488500  0.75000000  1.0
  N3-  N2  1  0.39011500  0.01511500  0.25000000  1.0
  N3-  N2  1  0.39011500  0.51511500  0.25000000  1.0
  N3-  N2  1  0.89011500  0.01511500  0.25000000  1.0
  N3-  N2  1  0.89011500  0.51511500  0.25000000  1.0
  N3-  N2  1  0.01511500  0.37500000  0.28023000  1.0
  N3-  N2  1  0.01511500  0.87500000  0.28023000  1.0
  N3-  N2  1  0.51511500  0.37500000  0.28023000  1.0
  N3-  N2  1  0.51511500  0.87500000  0.28023000  1.0
  N3-  N2  1  0.23488500  0.12500000  0.21977000  1.0
  N3-  N2  1  0.23488500  0.62500000  0.21977000  1.0
  N3-  N2  1  0.73488500  0.12500000  0.21977000  1.0
  N3-  N2  1  0.73488500  0.62500000  0.21977000  1.0
  N3-  N2  1  0.37500000  0.35988500  0.46977000  1.0
  N3-  N2  1  0.37500000  0.85988500  0.46977000  1.0
  N3-  N2  1  0.87500000  0.35988500  0.46977000  1.0
  N3-  N2  1  0.87500000  0.85988500  0.46977000  1.0
  N3-  N2  1  0.12500000  0.39011500  0.03023000  1.0
  N3-  N2  1  0.12500000  0.89011500  0.03023000  1.0
  N3-  N2  1  0.62500000  0.39011500  0.03023000  1.0
  N3-  N2  1  0.62500000  0.89011500  0.03023000  1.0
  N3-  N2  1  0.14011500  0.26511500  0.25000000  1.0
  N3-  N2  1  0.14011500  0.76511500  0.25000000  1.0
  N3-  N2  1  0.64011500  0.26511500  0.25000000  1.0
  N3-  N2  1  0.64011500  0.76511500  0.25000000  1.0
  N3-  N2  1  0.10988500  0.48488500  0.75000000  1.0
  N3-  N2  1  0.10988500  0.98488500  0.75000000  1.0
  N3-  N2  1  0.60988500  0.48488500  0.75000000  1.0
  N3-  N2  1  0.60988500  0.98488500  0.75000000  1.0
