# generated using pymatgen
data_Li3AlF6
_symmetry_space_group_name_H-M   'P 1'
_cell_length_a   8.24636541
_cell_length_b   9.86100000
_cell_length_c   24.73909623
_cell_angle_alpha   86.49630600
_cell_angle_beta   118.86846400
_cell_angle_gamma   93.50369400
_symmetry_Int_Tables_number   1
_chemical_formula_structural   Li3AlF6
_chemical_formula_sum   'Li54 Al18 F108'
_cell_volume   1757.28074245
_cell_formula_units_Z   18
loop_
 _symmetry_equiv_pos_site_id
 _symmetry_equiv_pos_as_xyz
  1  'x, y, z'
loop_
 _atom_type_symbol
 _atom_type_oxidation_number
  Li+  1.0
  Al3+  3.0
  F-  -1.0
loop_
 _atom_site_type_symbol
 _atom_site_label
 _atom_site_symmetry_multiplicity
 _atom_site_fract_x
 _atom_site_fract_y
 _atom_site_fract_z
 _atom_site_occupancy
  Li+  Li0  1  0.79700000  0.75000000  0.68233333  1.0
  Li+  Li1  1  0.79700000  0.75000000  0.34900000  1.0
  Li+  Li2  1  0.79700000  0.75000000  0.01566667  1.0
  Li+  Li3  1  0.20300000  0.25000000  0.48433333  1.0
  Li+  Li4  1  0.20300000  0.25000000  0.15100000  1.0
  Li+  Li5  1  0.20300000  0.25000000  0.81766667  1.0
  Li+  Li6  1  0.95256649  0.06384486  0.53228093  1.0
  Li+  Li7  1  0.95242618  0.06103366  0.19699806  1.0
  Li+  Li8  1  0.94900000  0.06000000  0.86633333  1.0
  Li+  Li9  1  0.34900000  0.44000000  0.73300000  1.0
  Li+  Li10  1  0.34900000  0.44000000  0.39966667  1.0
  Li+  Li11  1  0.34875002  0.44024173  0.06542275  1.0
  Li+  Li12  1  0.05100000  0.94000000  0.63366667  1.0
  Li+  Li13  1  0.05100000  0.94000000  0.30033333  1.0
  Li+  Li14  1  0.05100000  0.94000000  0.96700000  1.0
  Li+  Li15  1  0.65100000  0.56000000  0.43366667  1.0
  Li+  Li16  1  0.65100000  0.56000000  0.10033333  1.0
  Li+  Li17  1  0.65100000  0.56000000  0.76700000  1.0
  Li+  Li18  1  0.11600000  0.44200000  0.57000000  1.0
  Li+  Li19  1  0.11600000  0.44200000  0.23666667  1.0
  Li+  Li20  1  0.11600000  0.44200000  0.90333333  1.0
  Li+  Li21  1  0.45686411  0.05830678  0.45924006  1.0
  Li+  Li22  1  0.46000000  0.05800000  0.12200000  1.0
  Li+  Li23  1  0.46135797  0.06081030  0.78853292  1.0
  Li+  Li24  1  0.88400000  0.55800000  0.59666667  1.0
  Li+  Li25  1  0.87976289  0.55593689  0.25714229  1.0
  Li+  Li26  1  0.88400000  0.55800000  0.93000000  1.0
  Li+  Li27  1  0.54000000  0.94200000  0.71133333  1.0
  Li+  Li28  1  0.54000000  0.94200000  0.37800000  1.0
  Li+  Li29  1  0.54000000  0.94200000  0.04466667  1.0
  Li+  Li30  1  0.69973579  0.03561724  0.62554083  1.0
  Li+  Li31  1  0.69900000  0.03500000  0.29166667  1.0
  Li+  Li32  1  0.69900000  0.03500000  0.95833333  1.0
  Li+  Li33  1  0.62290434  0.46794714  0.65058302  1.0
  Li+  Li34  1  0.62472668  0.46429270  0.31588206  1.0
  Li+  Li35  1  0.63001679  0.46705362  0.98332471  1.0
  Li+  Li36  1  0.29845228  0.96655036  0.53969169  1.0
  Li+  Li37  1  0.29822236  0.96954243  0.20426029  1.0
  Li+  Li38  1  0.30100000  0.96500000  0.87500000  1.0
  Li+  Li39  1  0.37500000  0.53500000  0.51700000  1.0
  Li+  Li40  1  0.37500000  0.53500000  0.18366667  1.0
  Li+  Li41  1  0.37500000  0.53500000  0.85033333  1.0
  Li+  Li42  1  0.27700000  0.76000000  0.74900000  1.0
  Li+  Li43  1  0.27700000  0.76000000  0.41566667  1.0
  Li+  Li44  1  0.27370081  0.75800307  0.08268466  1.0
  Li+  Li45  1  0.99700000  0.74000000  0.50900000  1.0
  Li+  Li46  1  0.99805765  0.73708827  0.17673360  1.0
  Li+  Li47  1  0.99552971  0.74387510  0.84333292  1.0
  Li+  Li48  1  0.72300000  0.24000000  0.41766667  1.0
  Li+  Li49  1  0.72300000  0.24000000  0.08433333  1.0
  Li+  Li50  1  0.72300000  0.24000000  0.75100000  1.0
  Li+  Li51  1  0.00313393  0.25935241  0.65828015  1.0
  Li+  Li52  1  0.00300000  0.26000000  0.32433333  1.0
  Li+  Li53  1  0.00300000  0.26000000  0.99100000  1.0
  Al3+  Al54  1  0.99946123  0.49685809  0.74862848  1.0
  Al3+  Al55  1  0.99969753  0.50419029  0.41664716  1.0
  Al3+  Al56  1  0.00000000  0.50000000  0.08333333  1.0
  Al3+  Al57  1  0.00000000  0.00000000  0.75000000  1.0
  Al3+  Al58  1  0.00000000  0.00000000  0.41666667  1.0
  Al3+  Al59  1  0.00000000  0.00000000  0.08333333  1.0
  Al3+  Al60  1  0.33243831  0.20608667  0.63387573  1.0
  Al3+  Al61  1  0.33260000  0.20050000  0.30380000  1.0
  Al3+  Al62  1  0.33260000  0.20050000  0.97046667  1.0
  Al3+  Al63  1  0.66140000  0.29950000  0.52753333  1.0
  Al3+  Al64  1  0.66466246  0.30323955  0.19686882  1.0
  Al3+  Al65  1  0.66140000  0.29950000  0.86086667  1.0
  Al3+  Al66  1  0.66740000  0.79950000  0.52953333  1.0
  Al3+  Al67  1  0.66740000  0.79950000  0.19620000  1.0
  Al3+  Al68  1  0.66740000  0.79950000  0.86286667  1.0
  Al3+  Al69  1  0.33860000  0.70050000  0.63913333  1.0
  Al3+  Al70  1  0.33860000  0.70050000  0.30580000  1.0
  Al3+  Al71  1  0.33860000  0.70050000  0.97246667  1.0
  F-  F72  1  0.75260000  0.69970000  0.60160000  1.0
  F-  F73  1  0.75260000  0.69970000  0.26826667  1.0
  F-  F74  1  0.75260000  0.69970000  0.93493333  1.0
  F-  F75  1  0.55480000  0.80030000  0.66753333  1.0
  F-  F76  1  0.55480000  0.80030000  0.33420000  1.0
  F-  F77  1  0.55480000  0.80030000  0.00086667  1.0
  F-  F78  1  0.24740000  0.30030000  0.56506667  1.0
  F-  F79  1  0.24888506  0.29964238  0.23296984  1.0
  F-  F80  1  0.24740000  0.30030000  0.89840000  1.0
  F-  F81  1  0.44520000  0.19970000  0.49913333  1.0
  F-  F82  1  0.44520000  0.19970000  0.16580000  1.0
  F-  F83  1  0.44520000  0.19970000  0.83246667  1.0
  F-  F84  1  0.88760000  0.38300000  0.56080000  1.0
  F-  F85  1  0.88760000  0.38300000  0.22746667  1.0
  F-  F86  1  0.88558853  0.38694310  0.89284075  1.0
  F-  F87  1  0.43240000  0.11700000  0.71253333  1.0
  F-  F88  1  0.43240000  0.11700000  0.37920000  1.0
  F-  F89  1  0.42950107  0.11519798  0.04783558  1.0
  F-  F90  1  0.10934986  0.61810134  0.60649514  1.0
  F-  F91  1  0.11240000  0.61700000  0.27253333  1.0
  F-  F92  1  0.11240000  0.61700000  0.93920000  1.0
  F-  F93  1  0.56760000  0.88300000  0.45413333  1.0
  F-  F94  1  0.56663921  0.88176702  0.12384974  1.0
  F-  F95  1  0.56760000  0.88300000  0.78746667  1.0
  F-  F96  1  0.75840000  0.20650000  0.59920000  1.0
  F-  F97  1  0.75840000  0.20650000  0.26586667  1.0
  F-  F98  1  0.75840000  0.20650000  0.93253333  1.0
  F-  F99  1  0.54953391  0.29043450  0.66793159  1.0
  F-  F100  1  0.55048548  0.29698481  0.33462479  1.0
  F-  F101  1  0.54966483  0.29323965  0.00438451  1.0
  F-  F102  1  0.24160000  0.79350000  0.56746667  1.0
  F-  F103  1  0.23762521  0.79444580  0.23356246  1.0
  F-  F104  1  0.24160000  0.79350000  0.90080000  1.0
  F-  F105  1  0.45240000  0.70650000  0.49720000  1.0
  F-  F106  1  0.45602333  0.70163563  0.16415547  1.0
  F-  F107  1  0.45240000  0.70650000  0.83053333  1.0
  F-  F108  1  0.23632177  0.32959087  0.65915327  1.0
  F-  F109  1  0.23500000  0.32490000  0.32853333  1.0
  F-  F110  1  0.23500000  0.32490000  0.99520000  1.0
  F-  F111  1  0.73560000  0.17510000  0.49500000  1.0
  F-  F112  1  0.73560000  0.17510000  0.16166667  1.0
  F-  F113  1  0.73560000  0.17510000  0.82833333  1.0
  F-  F114  1  0.76500000  0.67510000  0.50480000  1.0
  F-  F115  1  0.76500000  0.67510000  0.17146667  1.0
  F-  F116  1  0.76714274  0.67744285  0.84156750  1.0
  F-  F117  1  0.26440000  0.82490000  0.67166667  1.0
  F-  F118  1  0.26440000  0.82490000  0.33833333  1.0
  F-  F119  1  0.26440000  0.82490000  0.00500000  1.0
  F-  F120  1  0.92746747  0.44259647  0.67403781  1.0
  F-  F121  1  0.92564904  0.44421576  0.34065910  1.0
  F-  F122  1  0.92910000  0.44020000  0.00836667  1.0
  F-  F123  1  0.77510000  0.05980000  0.72636667  1.0
  F-  F124  1  0.77510000  0.05980000  0.39303333  1.0
  F-  F125  1  0.77510000  0.05980000  0.05970000  1.0
  F-  F126  1  0.07090000  0.55980000  0.49163333  1.0
  F-  F127  1  0.07090000  0.55980000  0.15830000  1.0
  F-  F128  1  0.07090000  0.55980000  0.82496667  1.0
  F-  F129  1  0.22490000  0.94020000  0.44030000  1.0
  F-  F130  1  0.22490000  0.94020000  0.10696667  1.0
  F-  F131  1  0.22490000  0.94020000  0.77363333  1.0
  F-  F132  1  0.76960000  0.56260000  0.71866667  1.0
  F-  F133  1  0.76373067  0.56369510  0.37899291  1.0
  F-  F134  1  0.76960000  0.56260000  0.05200000  1.0
  F-  F135  1  0.90292418  0.93926807  0.67456965  1.0
  F-  F136  1  0.90600000  0.93740000  0.33986667  1.0
  F-  F137  1  0.90478325  0.93740948  0.00617860  1.0
  F-  F138  1  0.23040000  0.43740000  0.44800000  1.0
  F-  F139  1  0.23040000  0.43740000  0.11466667  1.0
  F-  F140  1  0.23040000  0.43740000  0.78133333  1.0
  F-  F141  1  0.09058884  0.06342147  0.49352618  1.0
  F-  F142  1  0.09400000  0.06260000  0.16013333  1.0
  F-  F143  1  0.09026663  0.06043701  0.83160574  1.0
  F-  F144  1  0.43340000  0.07450000  0.61400000  1.0
  F-  F145  1  0.43340000  0.07450000  0.28066667  1.0
  F-  F146  1  0.43340000  0.07450000  0.94733333  1.0
  F-  F147  1  0.59188878  0.42369387  0.55941230  1.0
  F-  F148  1  0.59200000  0.42550000  0.22780000  1.0
  F-  F149  1  0.59200000  0.42550000  0.89446667  1.0
  F-  F150  1  0.56660000  0.92550000  0.55266667  1.0
  F-  F151  1  0.56660000  0.92550000  0.21933333  1.0
  F-  F152  1  0.56509671  0.92389261  0.88529698  1.0
  F-  F153  1  0.40800000  0.57450000  0.60553333  1.0
  F-  F154  1  0.40800000  0.57450000  0.27220000  1.0
  F-  F155  1  0.40833815  0.57342672  0.93548666  1.0
  F-  F156  1  0.12320000  0.09990000  0.61346667  1.0
  F-  F157  1  0.12320000  0.09990000  0.28013333  1.0
  F-  F158  1  0.12250063  0.10174000  0.95561568  1.0
  F-  F159  1  0.59040000  0.40010000  0.45773333  1.0
  F-  F160  1  0.58482023  0.39725281  0.12876636  1.0
  F-  F161  1  0.59040000  0.40010000  0.79106667  1.0
  F-  F162  1  0.87680000  0.90010000  0.55320000  1.0
  F-  F163  1  0.87680000  0.90010000  0.21986667  1.0
  F-  F164  1  0.87680000  0.90010000  0.88653333  1.0
  F-  F165  1  0.40960000  0.59990000  0.70893333  1.0
  F-  F166  1  0.40960000  0.59990000  0.37560000  1.0
  F-  F167  1  0.40960000  0.59990000  0.04226667  1.0
  F-  F168  1  0.05490000  0.65780000  0.72356667  1.0
  F-  F169  1  0.05490000  0.65780000  0.39023333  1.0
  F-  F170  1  0.05490000  0.65780000  0.05690000  1.0
  F-  F171  1  0.92044513  0.83927451  0.43790371  1.0
  F-  F172  1  0.92070000  0.84220000  0.10163333  1.0
  F-  F173  1  0.92070000  0.84220000  0.76830000  1.0
  F-  F174  1  0.94510000  0.34220000  0.44310000  1.0
  F-  F175  1  0.94510000  0.34220000  0.10976667  1.0
  F-  F176  1  0.94510000  0.34220000  0.77643333  1.0
  F-  F177  1  0.07930000  0.15780000  0.73170000  1.0
  F-  F178  1  0.07930000  0.15780000  0.39836667  1.0
  F-  F179  1  0.07930000  0.15780000  0.06503333  1.0
