# generated using pymatgen
data_Li3AlF6
_symmetry_space_group_name_H-M   'P 1'
_cell_length_a   24.97667541
_cell_length_b   8.32555847
_cell_length_c   9.95569902
_cell_angle_alpha   93.50369400
_cell_angle_beta   93.50369400
_cell_angle_gamma   61.13153600
_symmetry_Int_Tables_number   1
_chemical_formula_structural   Li3AlF6
_chemical_formula_sum   'Li54 Al18 F108'
_cell_volume   1808.39604898
_cell_formula_units_Z   18
loop_
 _symmetry_equiv_pos_site_id
 _symmetry_equiv_pos_as_xyz
  1  'x, y, z'
loop_
 _atom_type_symbol
 _atom_type_oxidation_number
  Li+  1.0
  Al3+  3.0
  F-  -1.0
loop_
 _atom_site_type_symbol
 _atom_site_label
 _atom_site_symmetry_multiplicity
 _atom_site_fract_x
 _atom_site_fract_y
 _atom_site_fract_z
 _atom_site_occupancy
  Li+  Li0  1  0.93233333  0.86966667  0.25000000  1.0
  Li+  Li1  1  0.59900000  0.86966667  0.25000000  1.0
  Li+  Li2  1  0.26566667  0.86966667  0.25000000  1.0
  Li+  Li3  1  0.73433333  0.46366667  0.75000000  1.0
  Li+  Li4  1  0.40100000  0.46366667  0.75000000  1.0
  Li+  Li5  1  0.06766667  0.46366667  0.75000000  1.0
  Li+  Li6  1  0.78300000  0.71766667  0.94000000  1.0
  Li+  Li7  1  0.44966667  0.71766667  0.94000000  1.0
  Li+  Li8  1  0.11633333  0.71766667  0.94000000  1.0
  Li+  Li9  1  0.98300000  0.31766667  0.56000000  1.0
  Li+  Li10  1  0.64966667  0.31766667  0.56000000  1.0
  Li+  Li11  1  0.31633333  0.31766667  0.56000000  1.0
  Li+  Li12  1  0.88366667  0.61566667  0.06000000  1.0
  Li+  Li13  1  0.55033333  0.61566667  0.06000000  1.0
  Li+  Li14  1  0.21700000  0.61566667  0.06000000  1.0
  Li+  Li15  1  0.68366667  0.01566667  0.44000000  1.0
  Li+  Li16  1  0.35033333  0.01566667  0.44000000  1.0
  Li+  Li17  1  0.01700000  0.01566667  0.44000000  1.0
  Li+  Li18  1  0.82000000  0.55066667  0.55800000  1.0
  Li+  Li19  1  0.48666667  0.55066667  0.55800000  1.0
  Li+  Li20  1  0.15333333  0.55066667  0.55800000  1.0
  Li+  Li21  1  0.70533333  0.20666667  0.94200000  1.0
  Li+  Li22  1  0.37200000  0.20666667  0.94200000  1.0
  Li+  Li23  1  0.03866667  0.20666667  0.94200000  1.0
  Li+  Li24  1  0.84666667  0.78266667  0.44200000  1.0
  Li+  Li25  1  0.51333333  0.78266667  0.44200000  1.0
  Li+  Li26  1  0.18000000  0.78266667  0.44200000  1.0
  Li+  Li27  1  0.96133333  0.12666667  0.05800000  1.0
  Li+  Li28  1  0.62800000  0.12666667  0.05800000  1.0
  Li+  Li29  1  0.29466667  0.12666667  0.05800000  1.0
  Li+  Li30  1  0.87500000  0.96766667  0.96500000  1.0
  Li+  Li31  1  0.54166667  0.96766667  0.96500000  1.0
  Li+  Li32  1  0.20833333  0.96766667  0.96500000  1.0
  Li+  Li33  1  0.89966667  0.04166667  0.53500000  1.0
  Li+  Li34  1  0.56633333  0.04166667  0.53500000  1.0
  Li+  Li35  1  0.23300000  0.04166667  0.53500000  1.0
  Li+  Li36  1  0.79166667  0.36566667  0.03500000  1.0
  Li+  Li37  1  0.45833333  0.36566667  0.03500000  1.0
  Li+  Li38  1  0.12500000  0.36566667  0.03500000  1.0
  Li+  Li39  1  0.76700000  0.29166667  0.46500000  1.0
  Li+  Li40  1  0.43366667  0.29166667  0.46500000  1.0
  Li+  Li41  1  0.10033333  0.29166667  0.46500000  1.0
  Li+  Li42  1  0.99900000  0.38966667  0.24000000  1.0
  Li+  Li43  1  0.66566667  0.38966667  0.24000000  1.0
  Li+  Li44  1  0.33233333  0.38966667  0.24000000  1.0
  Li+  Li45  1  0.75900000  0.66966667  0.26000000  1.0
  Li+  Li46  1  0.42566667  0.66966667  0.26000000  1.0
  Li+  Li47  1  0.09233333  0.66966667  0.26000000  1.0
  Li+  Li48  1  0.66766667  0.94366667  0.76000000  1.0
  Li+  Li49  1  0.33433333  0.94366667  0.76000000  1.0
  Li+  Li50  1  0.00100000  0.94366667  0.76000000  1.0
  Li+  Li51  1  0.90766667  0.66366667  0.74000000  1.0
  Li+  Li52  1  0.57433333  0.66366667  0.74000000  1.0
  Li+  Li53  1  0.24100000  0.66366667  0.74000000  1.0
  Al3+  Al54  1  0.00000000  0.66666667  0.50000000  1.0
  Al3+  Al55  1  0.66666667  0.66666667  0.50000000  1.0
  Al3+  Al56  1  0.33333333  0.66666667  0.50000000  1.0
  Al3+  Al57  1  0.00000000  0.66666667  0.00000000  1.0
  Al3+  Al58  1  0.66666667  0.66666667  0.00000000  1.0
  Al3+  Al59  1  0.33333333  0.66666667  0.00000000  1.0
  Al3+  Al60  1  0.88713333  0.33406667  0.79950000  1.0
  Al3+  Al61  1  0.55380000  0.33406667  0.79950000  1.0
  Al3+  Al62  1  0.22046667  0.33406667  0.79950000  1.0
  Al3+  Al63  1  0.77753333  0.00526667  0.70050000  1.0
  Al3+  Al64  1  0.44420000  0.00526667  0.70050000  1.0
  Al3+  Al65  1  0.11086667  0.00526667  0.70050000  1.0
  Al3+  Al66  1  0.77953333  0.99926667  0.20050000  1.0
  Al3+  Al67  1  0.44620000  0.99926667  0.20050000  1.0
  Al3+  Al68  1  0.11286667  0.99926667  0.20050000  1.0
  Al3+  Al69  1  0.88913333  0.32806667  0.29950000  1.0
  Al3+  Al70  1  0.55580000  0.32806667  0.29950000  1.0
  Al3+  Al71  1  0.22246667  0.32806667  0.29950000  1.0
  F-  F72  1  0.85160000  0.91406667  0.30030000  1.0
  F-  F73  1  0.51826667  0.91406667  0.30030000  1.0
  F-  F74  1  0.18493333  0.91406667  0.30030000  1.0
  F-  F75  1  0.91753333  0.11186667  0.19970000  1.0
  F-  F76  1  0.58420000  0.11186667  0.19970000  1.0
  F-  F77  1  0.25086667  0.11186667  0.19970000  1.0
  F-  F78  1  0.81506667  0.41926667  0.69970000  1.0
  F-  F79  1  0.48173333  0.41926667  0.69970000  1.0
  F-  F80  1  0.14840000  0.41926667  0.69970000  1.0
  F-  F81  1  0.74913333  0.22146667  0.80030000  1.0
  F-  F82  1  0.41580000  0.22146667  0.80030000  1.0
  F-  F83  1  0.08246667  0.22146667  0.80030000  1.0
  F-  F84  1  0.81080000  0.77906667  0.61700000  1.0
  F-  F85  1  0.47746667  0.77906667  0.61700000  1.0
  F-  F86  1  0.14413333  0.77906667  0.61700000  1.0
  F-  F87  1  0.96253333  0.23426667  0.88300000  1.0
  F-  F88  1  0.62920000  0.23426667  0.88300000  1.0
  F-  F89  1  0.29586667  0.23426667  0.88300000  1.0
  F-  F90  1  0.85586667  0.55426667  0.38300000  1.0
  F-  F91  1  0.52253333  0.55426667  0.38300000  1.0
  F-  F92  1  0.18920000  0.55426667  0.38300000  1.0
  F-  F93  1  0.70413333  0.09906667  0.11700000  1.0
  F-  F94  1  0.37080000  0.09906667  0.11700000  1.0
  F-  F95  1  0.03746667  0.09906667  0.11700000  1.0
  F-  F96  1  0.84920000  0.90826667  0.79350000  1.0
  F-  F97  1  0.51586667  0.90826667  0.79350000  1.0
  F-  F98  1  0.18253333  0.90826667  0.79350000  1.0
  F-  F99  1  0.91946667  0.11906667  0.70650000  1.0
  F-  F100  1  0.58613333  0.11906667  0.70650000  1.0
  F-  F101  1  0.25280000  0.11906667  0.70650000  1.0
  F-  F102  1  0.81746667  0.42506667  0.20650000  1.0
  F-  F103  1  0.48413333  0.42506667  0.20650000  1.0
  F-  F104  1  0.15080000  0.42506667  0.20650000  1.0
  F-  F105  1  0.74720000  0.21426667  0.29350000  1.0
  F-  F106  1  0.41386667  0.21426667  0.29350000  1.0
  F-  F107  1  0.08053333  0.21426667  0.29350000  1.0
  F-  F108  1  0.91186667  0.43166667  0.67510000  1.0
  F-  F109  1  0.57853333  0.43166667  0.67510000  1.0
  F-  F110  1  0.24520000  0.43166667  0.67510000  1.0
  F-  F111  1  0.74500000  0.93106667  0.82490000  1.0
  F-  F112  1  0.41166667  0.93106667  0.82490000  1.0
  F-  F113  1  0.07833333  0.93106667  0.82490000  1.0
  F-  F114  1  0.75480000  0.90166667  0.32490000  1.0
  F-  F115  1  0.42146667  0.90166667  0.32490000  1.0
  F-  F116  1  0.08813333  0.90166667  0.32490000  1.0
  F-  F117  1  0.92166667  0.40226667  0.17510000  1.0
  F-  F118  1  0.58833333  0.40226667  0.17510000  1.0
  F-  F119  1  0.25500000  0.40226667  0.17510000  1.0
  F-  F120  1  0.92503333  0.73756667  0.55980000  1.0
  F-  F121  1  0.59170000  0.73756667  0.55980000  1.0
  F-  F122  1  0.25836667  0.73756667  0.55980000  1.0
  F-  F123  1  0.97636667  0.89156667  0.94020000  1.0
  F-  F124  1  0.64303333  0.89156667  0.94020000  1.0
  F-  F125  1  0.30970000  0.89156667  0.94020000  1.0
  F-  F126  1  0.74163333  0.59576667  0.44020000  1.0
  F-  F127  1  0.40830000  0.59576667  0.44020000  1.0
  F-  F128  1  0.07496667  0.59576667  0.44020000  1.0
  F-  F129  1  0.69030000  0.44176667  0.05980000  1.0
  F-  F130  1  0.35696667  0.44176667  0.05980000  1.0
  F-  F131  1  0.02363333  0.44176667  0.05980000  1.0
  F-  F132  1  0.96866667  0.89706667  0.43740000  1.0
  F-  F133  1  0.63533333  0.89706667  0.43740000  1.0
  F-  F134  1  0.30200000  0.89706667  0.43740000  1.0
  F-  F135  1  0.92320000  0.76066667  0.06260000  1.0
  F-  F136  1  0.58986667  0.76066667  0.06260000  1.0
  F-  F137  1  0.25653333  0.76066667  0.06260000  1.0
  F-  F138  1  0.69800000  0.43626667  0.56260000  1.0
  F-  F139  1  0.36466667  0.43626667  0.56260000  1.0
  F-  F140  1  0.03133333  0.43626667  0.56260000  1.0
  F-  F141  1  0.74346667  0.57266667  0.93740000  1.0
  F-  F142  1  0.41013333  0.57266667  0.93740000  1.0
  F-  F143  1  0.07680000  0.57266667  0.93740000  1.0
  F-  F144  1  0.86400000  0.23326667  0.92550000  1.0
  F-  F145  1  0.53066667  0.23326667  0.92550000  1.0
  F-  F146  1  0.19733333  0.23326667  0.92550000  1.0
  F-  F147  1  0.81113333  0.07466667  0.57450000  1.0
  F-  F148  1  0.47780000  0.07466667  0.57450000  1.0
  F-  F149  1  0.14446667  0.07466667  0.57450000  1.0
  F-  F150  1  0.80266667  0.10006667  0.07450000  1.0
  F-  F151  1  0.46933333  0.10006667  0.07450000  1.0
  F-  F152  1  0.13600000  0.10006667  0.07450000  1.0
  F-  F153  1  0.85553333  0.25866667  0.42550000  1.0
  F-  F154  1  0.52220000  0.25866667  0.42550000  1.0
  F-  F155  1  0.18886667  0.25866667  0.42550000  1.0
  F-  F156  1  0.86346667  0.54346667  0.90010000  1.0
  F-  F157  1  0.53013333  0.54346667  0.90010000  1.0
  F-  F158  1  0.19680000  0.54346667  0.90010000  1.0
  F-  F159  1  0.70773333  0.07626667  0.59990000  1.0
  F-  F160  1  0.37440000  0.07626667  0.59990000  1.0
  F-  F161  1  0.04106667  0.07626667  0.59990000  1.0
  F-  F162  1  0.80320000  0.78986667  0.09990000  1.0
  F-  F163  1  0.46986667  0.78986667  0.09990000  1.0
  F-  F164  1  0.13653333  0.78986667  0.09990000  1.0
  F-  F165  1  0.95893333  0.25706667  0.40010000  1.0
  F-  F166  1  0.62560000  0.25706667  0.40010000  1.0
  F-  F167  1  0.29226667  0.25706667  0.40010000  1.0
  F-  F168  1  0.97356667  0.61176667  0.34220000  1.0
  F-  F169  1  0.64023333  0.61176667  0.34220000  1.0
  F-  F170  1  0.30690000  0.61176667  0.34220000  1.0
  F-  F171  1  0.68496667  0.74596667  0.15780000  1.0
  F-  F172  1  0.35163333  0.74596667  0.15780000  1.0
  F-  F173  1  0.01830000  0.74596667  0.15780000  1.0
  F-  F174  1  0.69310000  0.72156667  0.65780000  1.0
  F-  F175  1  0.35976667  0.72156667  0.65780000  1.0
  F-  F176  1  0.02643333  0.72156667  0.65780000  1.0
  F-  F177  1  0.98170000  0.58736667  0.84220000  1.0
  F-  F178  1  0.64836667  0.58736667  0.84220000  1.0
  F-  F179  1  0.31503333  0.58736667  0.84220000  1.0
