# generated using pymatgen
data_Li3AlF6
_symmetry_space_group_name_H-M   'P 1'
_cell_length_a   8.24636541
_cell_length_b   24.73909623
_cell_length_c   9.86100000
_cell_angle_alpha   86.49630600
_cell_angle_beta   86.49630600
_cell_angle_gamma   61.13153600
_symmetry_Int_Tables_number   1
_chemical_formula_structural   Li3AlF6
_chemical_formula_sum   'Li54 Al18 F108'
_cell_volume   1757.28074245
_cell_formula_units_Z   18
loop_
 _symmetry_equiv_pos_site_id
 _symmetry_equiv_pos_as_xyz
  1  'x, y, z'
loop_
 _atom_type_symbol
 _atom_type_oxidation_number
  Li+  1.0
  Al3+  3.0
  F-  -1.0
loop_
 _atom_site_type_symbol
 _atom_site_label
 _atom_site_symmetry_multiplicity
 _atom_site_fract_x
 _atom_site_fract_y
 _atom_site_fract_z
 _atom_site_occupancy
  Li+  Li1  1  0.79700000  0.06766667  0.25000000  1.0
  Li+  Li1  1  0.79700000  0.40100000  0.25000000  1.0
  Li+  Li1  1  0.79700000  0.73433333  0.25000000  1.0
  Li+  Li1  1  0.20300000  0.26566667  0.75000000  1.0
  Li+  Li1  1  0.20300000  0.59900000  0.75000000  1.0
  Li+  Li1  1  0.20300000  0.93233333  0.75000000  1.0
  Li+  Li2  1  0.94900000  0.21700000  0.94000000  1.0
  Li+  Li2  1  0.94900000  0.55033333  0.94000000  1.0
  Li+  Li2  1  0.94900000  0.88366667  0.94000000  1.0
  Li+  Li2  1  0.34900000  0.01700000  0.56000000  1.0
  Li+  Li2  1  0.34900000  0.35033333  0.56000000  1.0
  Li+  Li2  1  0.34900000  0.68366667  0.56000000  1.0
  Li+  Li2  1  0.05100000  0.11633333  0.06000000  1.0
  Li+  Li2  1  0.05100000  0.44966667  0.06000000  1.0
  Li+  Li2  1  0.05100000  0.78300000  0.06000000  1.0
  Li+  Li2  1  0.65100000  0.31633333  0.44000000  1.0
  Li+  Li2  1  0.65100000  0.64966667  0.44000000  1.0
  Li+  Li2  1  0.65100000  0.98300000  0.44000000  1.0
  Li+  Li3  1  0.11600000  0.18000000  0.55800000  1.0
  Li+  Li3  1  0.11600000  0.51333333  0.55800000  1.0
  Li+  Li3  1  0.11600000  0.84666667  0.55800000  1.0
  Li+  Li3  1  0.46000000  0.29466667  0.94200000  1.0
  Li+  Li3  1  0.46000000  0.62800000  0.94200000  1.0
  Li+  Li3  1  0.46000000  0.96133333  0.94200000  1.0
  Li+  Li3  1  0.88400000  0.15333333  0.44200000  1.0
  Li+  Li3  1  0.88400000  0.48666667  0.44200000  1.0
  Li+  Li3  1  0.88400000  0.82000000  0.44200000  1.0
  Li+  Li3  1  0.54000000  0.03866667  0.05800000  1.0
  Li+  Li3  1  0.54000000  0.37200000  0.05800000  1.0
  Li+  Li3  1  0.54000000  0.70533333  0.05800000  1.0
  Li+  Li4  1  0.69900000  0.12500000  0.96500000  1.0
  Li+  Li4  1  0.69900000  0.45833333  0.96500000  1.0
  Li+  Li4  1  0.69900000  0.79166667  0.96500000  1.0
  Li+  Li4  1  0.62500000  0.10033333  0.53500000  1.0
  Li+  Li4  1  0.62500000  0.43366667  0.53500000  1.0
  Li+  Li4  1  0.62500000  0.76700000  0.53500000  1.0
  Li+  Li4  1  0.30100000  0.20833333  0.03500000  1.0
  Li+  Li4  1  0.30100000  0.54166667  0.03500000  1.0
  Li+  Li4  1  0.30100000  0.87500000  0.03500000  1.0
  Li+  Li4  1  0.37500000  0.23300000  0.46500000  1.0
  Li+  Li4  1  0.37500000  0.56633333  0.46500000  1.0
  Li+  Li4  1  0.37500000  0.89966667  0.46500000  1.0
  Li+  Li5  1  0.27700000  0.00100000  0.24000000  1.0
  Li+  Li5  1  0.27700000  0.33433333  0.24000000  1.0
  Li+  Li5  1  0.27700000  0.66766667  0.24000000  1.0
  Li+  Li5  1  0.99700000  0.24100000  0.26000000  1.0
  Li+  Li5  1  0.99700000  0.57433333  0.26000000  1.0
  Li+  Li5  1  0.99700000  0.90766667  0.26000000  1.0
  Li+  Li5  1  0.72300000  0.33233333  0.76000000  1.0
  Li+  Li5  1  0.72300000  0.66566667  0.76000000  1.0
  Li+  Li5  1  0.72300000  0.99900000  0.76000000  1.0
  Li+  Li5  1  0.00300000  0.09233333  0.74000000  1.0
  Li+  Li5  1  0.00300000  0.42566667  0.74000000  1.0
  Li+  Li5  1  0.00300000  0.75900000  0.74000000  1.0
  Al3+  Al1  1  0.00000000  0.00000000  0.50000000  1.0
  Al3+  Al1  1  0.00000000  0.33333333  0.50000000  1.0
  Al3+  Al1  1  0.00000000  0.66666667  0.50000000  1.0
  Al3+  Al1  1  0.00000000  0.00000000  0.00000000  1.0
  Al3+  Al1  1  0.00000000  0.33333333  0.00000000  1.0
  Al3+  Al1  1  0.00000000  0.66666667  0.00000000  1.0
  Al3+  Al2  1  0.33260000  0.11286667  0.79950000  1.0
  Al3+  Al2  1  0.33260000  0.44620000  0.79950000  1.0
  Al3+  Al2  1  0.33260000  0.77953333  0.79950000  1.0
  Al3+  Al2  1  0.66140000  0.22246667  0.70050000  1.0
  Al3+  Al2  1  0.66140000  0.55580000  0.70050000  1.0
  Al3+  Al2  1  0.66140000  0.88913333  0.70050000  1.0
  Al3+  Al2  1  0.66740000  0.22046667  0.20050000  1.0
  Al3+  Al2  1  0.66740000  0.55380000  0.20050000  1.0
  Al3+  Al2  1  0.66740000  0.88713333  0.20050000  1.0
  Al3+  Al2  1  0.33860000  0.11086667  0.29950000  1.0
  Al3+  Al2  1  0.33860000  0.44420000  0.29950000  1.0
  Al3+  Al2  1  0.33860000  0.77753333  0.29950000  1.0
  F-  F1  1  0.75260000  0.14840000  0.30030000  1.0
  F-  F1  1  0.75260000  0.48173333  0.30030000  1.0
  F-  F1  1  0.75260000  0.81506667  0.30030000  1.0
  F-  F1  1  0.55480000  0.08246667  0.19970000  1.0
  F-  F1  1  0.55480000  0.41580000  0.19970000  1.0
  F-  F1  1  0.55480000  0.74913333  0.19970000  1.0
  F-  F1  1  0.24740000  0.18493333  0.69970000  1.0
  F-  F1  1  0.24740000  0.51826667  0.69970000  1.0
  F-  F1  1  0.24740000  0.85160000  0.69970000  1.0
  F-  F1  1  0.44520000  0.25086667  0.80030000  1.0
  F-  F1  1  0.44520000  0.58420000  0.80030000  1.0
  F-  F1  1  0.44520000  0.91753333  0.80030000  1.0
  F-  F2  1  0.88760000  0.18920000  0.61700000  1.0
  F-  F2  1  0.88760000  0.52253333  0.61700000  1.0
  F-  F2  1  0.88760000  0.85586667  0.61700000  1.0
  F-  F2  1  0.43240000  0.03746667  0.88300000  1.0
  F-  F2  1  0.43240000  0.37080000  0.88300000  1.0
  F-  F2  1  0.43240000  0.70413333  0.88300000  1.0
  F-  F2  1  0.11240000  0.14413333  0.38300000  1.0
  F-  F2  1  0.11240000  0.47746667  0.38300000  1.0
  F-  F2  1  0.11240000  0.81080000  0.38300000  1.0
  F-  F2  1  0.56760000  0.29586667  0.11700000  1.0
  F-  F2  1  0.56760000  0.62920000  0.11700000  1.0
  F-  F2  1  0.56760000  0.96253333  0.11700000  1.0
  F-  F3  1  0.75840000  0.15080000  0.79350000  1.0
  F-  F3  1  0.75840000  0.48413333  0.79350000  1.0
  F-  F3  1  0.75840000  0.81746667  0.79350000  1.0
  F-  F3  1  0.54760000  0.08053333  0.70650000  1.0
  F-  F3  1  0.54760000  0.41386667  0.70650000  1.0
  F-  F3  1  0.54760000  0.74720000  0.70650000  1.0
  F-  F3  1  0.24160000  0.18253333  0.20650000  1.0
  F-  F3  1  0.24160000  0.51586667  0.20650000  1.0
  F-  F3  1  0.24160000  0.84920000  0.20650000  1.0
  F-  F3  1  0.45240000  0.25280000  0.29350000  1.0
  F-  F3  1  0.45240000  0.58613333  0.29350000  1.0
  F-  F3  1  0.45240000  0.91946667  0.29350000  1.0
  F-  F4  1  0.23500000  0.08813333  0.67510000  1.0
  F-  F4  1  0.23500000  0.42146667  0.67510000  1.0
  F-  F4  1  0.23500000  0.75480000  0.67510000  1.0
  F-  F4  1  0.73560000  0.25500000  0.82490000  1.0
  F-  F4  1  0.73560000  0.58833333  0.82490000  1.0
  F-  F4  1  0.73560000  0.92166667  0.82490000  1.0
  F-  F4  1  0.76500000  0.24520000  0.32490000  1.0
  F-  F4  1  0.76500000  0.57853333  0.32490000  1.0
  F-  F4  1  0.76500000  0.91186667  0.32490000  1.0
  F-  F4  1  0.26440000  0.07833333  0.17510000  1.0
  F-  F4  1  0.26440000  0.41166667  0.17510000  1.0
  F-  F4  1  0.26440000  0.74500000  0.17510000  1.0
  F-  F5  1  0.92910000  0.07496667  0.55980000  1.0
  F-  F5  1  0.92910000  0.40830000  0.55980000  1.0
  F-  F5  1  0.92910000  0.74163333  0.55980000  1.0
  F-  F5  1  0.77510000  0.02363333  0.94020000  1.0
  F-  F5  1  0.77510000  0.35696667  0.94020000  1.0
  F-  F5  1  0.77510000  0.69030000  0.94020000  1.0
  F-  F5  1  0.07090000  0.25836667  0.44020000  1.0
  F-  F5  1  0.07090000  0.59170000  0.44020000  1.0
  F-  F5  1  0.07090000  0.92503333  0.44020000  1.0
  F-  F5  1  0.22490000  0.30970000  0.05980000  1.0
  F-  F5  1  0.22490000  0.64303333  0.05980000  1.0
  F-  F5  1  0.22490000  0.97636667  0.05980000  1.0
  F-  F6  1  0.76960000  0.03133333  0.43740000  1.0
  F-  F6  1  0.76960000  0.36466667  0.43740000  1.0
  F-  F6  1  0.76960000  0.69800000  0.43740000  1.0
  F-  F6  1  0.90600000  0.07680000  0.06260000  1.0
  F-  F6  1  0.90600000  0.41013333  0.06260000  1.0
  F-  F6  1  0.90600000  0.74346667  0.06260000  1.0
  F-  F6  1  0.23040000  0.30200000  0.56260000  1.0
  F-  F6  1  0.23040000  0.63533333  0.56260000  1.0
  F-  F6  1  0.23040000  0.96866667  0.56260000  1.0
  F-  F6  1  0.09400000  0.25653333  0.93740000  1.0
  F-  F6  1  0.09400000  0.58986667  0.93740000  1.0
  F-  F6  1  0.09400000  0.92320000  0.93740000  1.0
  F-  F7  1  0.43340000  0.13600000  0.92550000  1.0
  F-  F7  1  0.43340000  0.46933333  0.92550000  1.0
  F-  F7  1  0.43340000  0.80266667  0.92550000  1.0
  F-  F7  1  0.59200000  0.18886667  0.57450000  1.0
  F-  F7  1  0.59200000  0.52220000  0.57450000  1.0
  F-  F7  1  0.59200000  0.85553333  0.57450000  1.0
  F-  F7  1  0.56660000  0.19733333  0.07450000  1.0
  F-  F7  1  0.56660000  0.53066667  0.07450000  1.0
  F-  F7  1  0.56660000  0.86400000  0.07450000  1.0
  F-  F7  1  0.40800000  0.14446667  0.42550000  1.0
  F-  F7  1  0.40800000  0.47780000  0.42550000  1.0
  F-  F7  1  0.40800000  0.81113333  0.42550000  1.0
  F-  F8  1  0.12320000  0.13653333  0.90010000  1.0
  F-  F8  1  0.12320000  0.46986667  0.90010000  1.0
  F-  F8  1  0.12320000  0.80320000  0.90010000  1.0
  F-  F8  1  0.59040000  0.29226667  0.59990000  1.0
  F-  F8  1  0.59040000  0.62560000  0.59990000  1.0
  F-  F8  1  0.59040000  0.95893333  0.59990000  1.0
  F-  F8  1  0.87680000  0.19680000  0.09990000  1.0
  F-  F8  1  0.87680000  0.53013333  0.09990000  1.0
  F-  F8  1  0.87680000  0.86346667  0.09990000  1.0
  F-  F8  1  0.40960000  0.04106667  0.40010000  1.0
  F-  F8  1  0.40960000  0.37440000  0.40010000  1.0
  F-  F8  1  0.40960000  0.70773333  0.40010000  1.0
  F-  F9  1  0.05490000  0.02643333  0.34220000  1.0
  F-  F9  1  0.05490000  0.35976667  0.34220000  1.0
  F-  F9  1  0.05490000  0.69310000  0.34220000  1.0
  F-  F9  1  0.92070000  0.31503333  0.15780000  1.0
  F-  F9  1  0.92070000  0.64836667  0.15780000  1.0
  F-  F9  1  0.92070000  0.98170000  0.15780000  1.0
  F-  F9  1  0.94510000  0.30690000  0.65780000  1.0
  F-  F9  1  0.94510000  0.64023333  0.65780000  1.0
  F-  F9  1  0.94510000  0.97356667  0.65780000  1.0
  F-  F9  1  0.07930000  0.01830000  0.84220000  1.0
  F-  F9  1  0.07930000  0.35163333  0.84220000  1.0
  F-  F9  1  0.07930000  0.68496667  0.84220000  1.0
