# generated using pymatgen
data_Li3BN2
_symmetry_space_group_name_H-M   'P 1'
_cell_length_a   13.19840000
_cell_length_b   13.93507066
_cell_length_c   13.19840000
_cell_angle_alpha   118.26613701
_cell_angle_beta   90.00000000
_cell_angle_gamma   61.73386299
_symmetry_Int_Tables_number   1
_chemical_formula_structural   Li3BN2
_chemical_formula_sum   'Li96 B32 N64'
_cell_volume   1802.65070688
_cell_formula_units_Z   32
loop_
 _symmetry_equiv_pos_site_id
 _symmetry_equiv_pos_as_xyz
  1  'x, y, z'
loop_
 _atom_type_symbol
 _atom_type_oxidation_number
  Li+  1.0
  B3+  3.0
  N3-  -3.0
loop_
 _atom_site_type_symbol
 _atom_site_label
 _atom_site_symmetry_multiplicity
 _atom_site_fract_x
 _atom_site_fract_y
 _atom_site_fract_z
 _atom_site_occupancy
  Li+  Li0  1  0.18331037  0.63150769  0.31636512  1.0
  Li+  Li1  1  0.18520000  0.12960000  0.31480000  1.0
  Li+  Li2  1  0.18520000  0.62960000  0.81480000  1.0
  Li+  Li3  1  0.18520000  0.12960000  0.81480000  1.0
  Li+  Li4  1  0.68520000  0.62960000  0.31480000  1.0
  Li+  Li5  1  0.68249418  0.12649260  0.31561842  1.0
  Li+  Li6  1  0.68520000  0.62960000  0.81480000  1.0
  Li+  Li7  1  0.68520000  0.12960000  0.81480000  1.0
  Li+  Li8  1  0.43980000  0.62040000  0.31020000  1.0
  Li+  Li9  1  0.43980000  0.12040000  0.31020000  1.0
  Li+  Li10  1  0.43980000  0.62040000  0.81020000  1.0
  Li+  Li11  1  0.43980000  0.12040000  0.81020000  1.0
  Li+  Li12  1  0.93980000  0.62040000  0.31020000  1.0
  Li+  Li13  1  0.93980000  0.12040000  0.31020000  1.0
  Li+  Li14  1  0.94158415  0.62015485  0.81338352  1.0
  Li+  Li15  1  0.93980000  0.12040000  0.81020000  1.0
  Li+  Li16  1  0.06546043  0.87312721  0.43424350  1.0
  Li+  Li17  1  0.06480000  0.37040000  0.43520000  1.0
  Li+  Li18  1  0.06723310  0.87330743  0.93514752  1.0
  Li+  Li19  1  0.06480000  0.37040000  0.93520000  1.0
  Li+  Li20  1  0.56480000  0.87040000  0.43520000  1.0
  Li+  Li21  1  0.56480000  0.37040000  0.43520000  1.0
  Li+  Li22  1  0.56480000  0.87040000  0.93520000  1.0
  Li+  Li23  1  0.56480000  0.37040000  0.93520000  1.0
  Li+  Li24  1  0.06121451  0.88268819  0.69108061  1.0
  Li+  Li25  1  0.06020000  0.37960000  0.68980000  1.0
  Li+  Li26  1  0.06634405  0.88106411  0.18778579  1.0
  Li+  Li27  1  0.06020000  0.37960000  0.18980000  1.0
  Li+  Li28  1  0.56020000  0.87960000  0.68980000  1.0
  Li+  Li29  1  0.56020000  0.37960000  0.68980000  1.0
  Li+  Li30  1  0.56020000  0.87960000  0.18980000  1.0
  Li+  Li31  1  0.56020000  0.37960000  0.18980000  1.0
  Li+  Li32  1  0.26035000  0.75000000  0.51035000  1.0
  Li+  Li33  1  0.26035000  0.25000000  0.51035000  1.0
  Li+  Li34  1  0.26035000  0.75000000  0.01035000  1.0
  Li+  Li35  1  0.26035000  0.25000000  0.01035000  1.0
  Li+  Li36  1  0.75870204  0.74776595  0.50827845  1.0
  Li+  Li37  1  0.76035000  0.25000000  0.51035000  1.0
  Li+  Li38  1  0.76035000  0.75000000  0.01035000  1.0
  Li+  Li39  1  0.76035000  0.25000000  0.01035000  1.0
  Li+  Li40  1  0.49163980  0.75026039  0.74165825  1.0
  Li+  Li41  1  0.48965000  0.25000000  0.73965000  1.0
  Li+  Li42  1  0.48939890  0.75349472  0.23735977  1.0
  Li+  Li43  1  0.48965000  0.25000000  0.23965000  1.0
  Li+  Li44  1  0.98965000  0.75000000  0.73965000  1.0
  Li+  Li45  1  0.98965000  0.25000000  0.73965000  1.0
  Li+  Li46  1  0.98965000  0.75000000  0.23965000  1.0
  Li+  Li47  1  0.98965000  0.25000000  0.23965000  1.0
  Li+  Li48  1  0.13702669  0.00147233  0.38732044  1.0
  Li+  Li49  1  0.13535000  0.50000000  0.38535000  1.0
  Li+  Li50  1  0.13535000  0.00000000  0.88535000  1.0
  Li+  Li51  1  0.13535000  0.50000000  0.88535000  1.0
  Li+  Li52  1  0.63535000  0.00000000  0.38535000  1.0
  Li+  Li53  1  0.63535000  0.50000000  0.38535000  1.0
  Li+  Li54  1  0.63535000  0.00000000  0.88535000  1.0
  Li+  Li55  1  0.63535000  0.50000000  0.88535000  1.0
  Li+  Li56  1  0.36465000  0.00000000  0.61465000  1.0
  Li+  Li57  1  0.36465000  0.50000000  0.61465000  1.0
  Li+  Li58  1  0.36401319  0.99646621  0.11125753  1.0
  Li+  Li59  1  0.36465000  0.50000000  0.11465000  1.0
  Li+  Li60  1  0.86390295  0.00050212  0.61532265  1.0
  Li+  Li61  1  0.86465000  0.50000000  0.61465000  1.0
  Li+  Li62  1  0.86465000  0.00000000  0.11465000  1.0
  Li+  Li63  1  0.85799143  0.50239989  0.11756185  1.0
  Li+  Li64  1  0.48965000  0.75000000  0.51035000  1.0
  Li+  Li65  1  0.48965000  0.25000000  0.51035000  1.0
  Li+  Li66  1  0.48965000  0.75000000  0.01035000  1.0
  Li+  Li67  1  0.48965000  0.25000000  0.01035000  1.0
  Li+  Li68  1  0.98965000  0.75000000  0.51035000  1.0
  Li+  Li69  1  0.98965000  0.25000000  0.51035000  1.0
  Li+  Li70  1  0.98965000  0.75000000  0.01035000  1.0
  Li+  Li71  1  0.98965000  0.25000000  0.01035000  1.0
  Li+  Li72  1  0.26035000  0.75000000  0.73965000  1.0
  Li+  Li73  1  0.26035000  0.25000000  0.73965000  1.0
  Li+  Li74  1  0.26268805  0.75341227  0.23820554  1.0
  Li+  Li75  1  0.26035000  0.25000000  0.23965000  1.0
  Li+  Li76  1  0.76035000  0.75000000  0.73965000  1.0
  Li+  Li77  1  0.76035000  0.25000000  0.73965000  1.0
  Li+  Li78  1  0.76035000  0.75000000  0.23965000  1.0
  Li+  Li79  1  0.76035000  0.25000000  0.23965000  1.0
  Li+  Li80  1  0.36465000  0.00000000  0.38535000  1.0
  Li+  Li81  1  0.36519238  0.50222556  0.38064572  1.0
  Li+  Li82  1  0.36465000  0.00000000  0.88535000  1.0
  Li+  Li83  1  0.36447631  0.49654564  0.88216418  1.0
  Li+  Li84  1  0.86559469  0.99450686  0.38217644  1.0
  Li+  Li85  1  0.86465000  0.50000000  0.38535000  1.0
  Li+  Li86  1  0.86572196  0.99676437  0.88352711  1.0
  Li+  Li87  1  0.87107179  0.49812661  0.88088394  1.0
  Li+  Li88  1  0.13535000  0.00000000  0.61465000  1.0
  Li+  Li89  1  0.13535000  0.50000000  0.61465000  1.0
  Li+  Li90  1  0.13535000  0.00000000  0.11465000  1.0
  Li+  Li91  1  0.13535000  0.50000000  0.11465000  1.0
  Li+  Li92  1  0.63535000  0.00000000  0.61465000  1.0
  Li+  Li93  1  0.63535000  0.50000000  0.61465000  1.0
  Li+  Li94  1  0.63396112  0.00345185  0.11862624  1.0
  Li+  Li95  1  0.63535000  0.50000000  0.11465000  1.0
  B3+  B96  1  0.30116086  0.89339127  0.70420760  1.0
  B3+  B97  1  0.30150000  0.39700000  0.69850000  1.0
  B3+  B98  1  0.30150000  0.89700000  0.19850000  1.0
  B3+  B99  1  0.30221227  0.39519222  0.19900438  1.0
  B3+  B100  1  0.80150000  0.89700000  0.69850000  1.0
  B3+  B101  1  0.80290319  0.40172415  0.69712704  1.0
  B3+  B102  1  0.80150000  0.89700000  0.19850000  1.0
  B3+  B103  1  0.80150000  0.39700000  0.19850000  1.0
  B3+  B104  1  0.32317372  0.85301500  0.42302028  1.0
  B3+  B105  1  0.32350000  0.35300000  0.42650000  1.0
  B3+  B106  1  0.32350000  0.85300000  0.92650000  1.0
  B3+  B107  1  0.32350000  0.35300000  0.92650000  1.0
  B3+  B108  1  0.81838972  0.85280361  0.42383205  1.0
  B3+  B109  1  0.82350000  0.35300000  0.42650000  1.0
  B3+  B110  1  0.82350000  0.85300000  0.92650000  1.0
  B3+  B111  1  0.82350000  0.35300000  0.92650000  1.0
  B3+  B112  1  0.45033959  0.60586829  0.55336271  1.0
  B3+  B113  1  0.44850000  0.10300000  0.55150000  1.0
  B3+  B114  1  0.45023764  0.60021373  0.05398823  1.0
  B3+  B115  1  0.44850000  0.10300000  0.05150000  1.0
  B3+  B116  1  0.94850000  0.60300000  0.55150000  1.0
  B3+  B117  1  0.94657728  0.10203042  0.55168861  1.0
  B3+  B118  1  0.94850000  0.60300000  0.05150000  1.0
  B3+  B119  1  0.94850000  0.10300000  0.05150000  1.0
  B3+  B120  1  0.17650000  0.64700000  0.57350000  1.0
  B3+  B121  1  0.17650000  0.14700000  0.57350000  1.0
  B3+  B122  1  0.17650000  0.64700000  0.07350000  1.0
  B3+  B123  1  0.17650000  0.14700000  0.07350000  1.0
  B3+  B124  1  0.68195050  0.64737188  0.57249573  1.0
  B3+  B125  1  0.67650000  0.14700000  0.57350000  1.0
  B3+  B126  1  0.67650000  0.64700000  0.07350000  1.0
  B3+  B127  1  0.67650000  0.14700000  0.07350000  1.0
  N3-  N128  1  0.40180000  0.90540000  0.70270000  1.0
  N3-  N129  1  0.40180000  0.40540000  0.70270000  1.0
  N3-  N130  1  0.40180000  0.90540000  0.20270000  1.0
  N3-  N131  1  0.40180000  0.40540000  0.20270000  1.0
  N3-  N132  1  0.90430955  0.90490525  0.70222826  1.0
  N3-  N133  1  0.90180000  0.40540000  0.70270000  1.0
  N3-  N134  1  0.90180000  0.90540000  0.20270000  1.0
  N3-  N135  1  0.90005322  0.40566704  0.20502034  1.0
  N3-  N136  1  0.19444065  0.90529137  0.70291149  1.0
  N3-  N137  1  0.19466589  0.40212608  0.70486675  1.0
  N3-  N138  1  0.19280000  0.90540000  0.20270000  1.0
  N3-  N139  1  0.19280000  0.40540000  0.20270000  1.0
  N3-  N140  1  0.69025692  0.90444928  0.70172430  1.0
  N3-  N141  1  0.69280000  0.40540000  0.70270000  1.0
  N3-  N142  1  0.69079959  0.90476756  0.20618101  1.0
  N3-  N143  1  0.69280000  0.40540000  0.20270000  1.0
  N3-  N144  1  0.43220000  0.84460000  0.42230000  1.0
  N3-  N145  1  0.43220000  0.34460000  0.42230000  1.0
  N3-  N146  1  0.43220000  0.84460000  0.92230000  1.0
  N3-  N147  1  0.43220000  0.34460000  0.92230000  1.0
  N3-  N148  1  0.93220000  0.84460000  0.42230000  1.0
  N3-  N149  1  0.93220000  0.34460000  0.42230000  1.0
  N3-  N150  1  0.93432499  0.84430741  0.91944164  1.0
  N3-  N151  1  0.93220000  0.34460000  0.92230000  1.0
  N3-  N152  1  0.22320000  0.84460000  0.42230000  1.0
  N3-  N153  1  0.22320000  0.34460000  0.42230000  1.0
  N3-  N154  1  0.22522928  0.84456357  0.92616880  1.0
  N3-  N155  1  0.22320000  0.34460000  0.92230000  1.0
  N3-  N156  1  0.72320000  0.84460000  0.42230000  1.0
  N3-  N157  1  0.72105190  0.34860473  0.41777243  1.0
  N3-  N158  1  0.72214577  0.84704524  0.92306872  1.0
  N3-  N159  1  0.72320000  0.34460000  0.92230000  1.0
  N3-  N160  1  0.45270000  0.59460000  0.65180000  1.0
  N3-  N161  1  0.45206112  0.09903191  0.65173775  1.0
  N3-  N162  1  0.45270000  0.59460000  0.15180000  1.0
  N3-  N163  1  0.45270000  0.09460000  0.15180000  1.0
  N3-  N164  1  0.95270000  0.59460000  0.65180000  1.0
  N3-  N165  1  0.95270000  0.09460000  0.65180000  1.0
  N3-  N166  1  0.95270000  0.59460000  0.15180000  1.0
  N3-  N167  1  0.95270000  0.09460000  0.15180000  1.0
  N3-  N168  1  0.45610826  0.59518582  0.44500508  1.0
  N3-  N169  1  0.45397680  0.09564446  0.44252400  1.0
  N3-  N170  1  0.45270000  0.59460000  0.94280000  1.0
  N3-  N171  1  0.45270000  0.09460000  0.94280000  1.0
  N3-  N172  1  0.95270000  0.59460000  0.44280000  1.0
  N3-  N173  1  0.95106856  0.09914827  0.44594129  1.0
  N3-  N174  1  0.95136410  0.59698323  0.94313988  1.0
  N3-  N175  1  0.95270000  0.09460000  0.94280000  1.0
  N3-  N176  1  0.17230000  0.65540000  0.68220000  1.0
  N3-  N177  1  0.17230000  0.15540000  0.68220000  1.0
  N3-  N178  1  0.17230000  0.65540000  0.18220000  1.0
  N3-  N179  1  0.17230000  0.15540000  0.18220000  1.0
  N3-  N180  1  0.67230000  0.65540000  0.68220000  1.0
  N3-  N181  1  0.67230000  0.15540000  0.68220000  1.0
  N3-  N182  1  0.67128395  0.65337957  0.18280202  1.0
  N3-  N183  1  0.67230000  0.15540000  0.18220000  1.0
  N3-  N184  1  0.17230000  0.65540000  0.47320000  1.0
  N3-  N185  1  0.17230000  0.15540000  0.47320000  1.0
  N3-  N186  1  0.17230000  0.65540000  0.97320000  1.0
  N3-  N187  1  0.17230000  0.15540000  0.97320000  1.0
  N3-  N188  1  0.67230000  0.65540000  0.47320000  1.0
  N3-  N189  1  0.67230000  0.15540000  0.47320000  1.0
  N3-  N190  1  0.67001291  0.65425382  0.97168022  1.0
  N3-  N191  1  0.66814418  0.15824524  0.97189729  1.0
