# generated using pymatgen
data_Li3BN2
_symmetry_space_group_name_H-M   'P 1'
_cell_length_a   13.17391445
_cell_length_b   13.17391445
_cell_length_c   13.90921844
_cell_angle_alpha   61.73386299
_cell_angle_beta   61.73386299
_cell_angle_gamma   90.00000000
_symmetry_Int_Tables_number   1
_chemical_formula_structural   Li3BN2
_chemical_formula_sum   'Li96 B32 N64'
_cell_volume   1792.63652449
_cell_formula_units_Z   32
loop_
 _symmetry_equiv_pos_site_id
 _symmetry_equiv_pos_as_xyz
  1  'x, y, z'
loop_
 _atom_type_symbol
 _atom_type_oxidation_number
  Li+  1.0
  B3+  3.0
  N3-  -3.0
loop_
 _atom_site_type_symbol
 _atom_site_label
 _atom_site_symmetry_multiplicity
 _atom_site_fract_x
 _atom_site_fract_y
 _atom_site_fract_z
 _atom_site_occupancy
  Li+  Li0  1  0.56480000  0.48146667  0.37040000  1.0
  Li+  Li1  1  0.56480000  0.48146667  0.87040000  1.0
  Li+  Li2  1  0.06480000  0.48146667  0.37040000  1.0
  Li+  Li3  1  0.06480000  0.48146667  0.87040000  1.0
  Li+  Li4  1  0.56480000  0.98146667  0.37040000  1.0
  Li+  Li5  1  0.56480000  0.98146667  0.87040000  1.0
  Li+  Li6  1  0.06480000  0.98146667  0.37040000  1.0
  Li+  Li7  1  0.06480000  0.98146667  0.87040000  1.0
  Li+  Li8  1  0.56020000  0.22686667  0.37960000  1.0
  Li+  Li9  1  0.56020000  0.22686667  0.87960000  1.0
  Li+  Li10  1  0.06020000  0.22686667  0.37960000  1.0
  Li+  Li11  1  0.06020000  0.22686667  0.87960000  1.0
  Li+  Li12  1  0.56020000  0.72686667  0.37960000  1.0
  Li+  Li13  1  0.56020000  0.72686667  0.87960000  1.0
  Li+  Li14  1  0.06020000  0.72686667  0.37960000  1.0
  Li+  Li15  1  0.06020000  0.72686667  0.87960000  1.0
  Li+  Li16  1  0.68520000  0.60186667  0.12960000  1.0
  Li+  Li17  1  0.68520000  0.60186667  0.62960000  1.0
  Li+  Li18  1  0.18520000  0.60186667  0.12960000  1.0
  Li+  Li19  1  0.18520000  0.60186667  0.62960000  1.0
  Li+  Li20  1  0.68520000  0.10186667  0.12960000  1.0
  Li+  Li21  1  0.68520000  0.10186667  0.62960000  1.0
  Li+  Li22  1  0.18520000  0.10186667  0.12960000  1.0
  Li+  Li23  1  0.18520000  0.10186667  0.62960000  1.0
  Li+  Li24  1  0.93980000  0.60646667  0.12040000  1.0
  Li+  Li25  1  0.93980000  0.60646667  0.62040000  1.0
  Li+  Li26  1  0.43980000  0.60646667  0.12040000  1.0
  Li+  Li27  1  0.43980000  0.60646667  0.62040000  1.0
  Li+  Li28  1  0.93980000  0.10646667  0.12040000  1.0
  Li+  Li29  1  0.93980000  0.10646667  0.62040000  1.0
  Li+  Li30  1  0.43980000  0.10646667  0.12040000  1.0
  Li+  Li31  1  0.43980000  0.10646667  0.62040000  1.0
  Li+  Li32  1  0.76035000  0.40631667  0.25000000  1.0
  Li+  Li33  1  0.76035000  0.40631667  0.75000000  1.0
  Li+  Li34  1  0.26035000  0.40631667  0.25000000  1.0
  Li+  Li35  1  0.26035000  0.40631667  0.75000000  1.0
  Li+  Li36  1  0.76035000  0.90631667  0.25000000  1.0
  Li+  Li37  1  0.76035000  0.90631667  0.75000000  1.0
  Li+  Li38  1  0.26035000  0.90631667  0.25000000  1.0
  Li+  Li39  1  0.26035000  0.90631667  0.75000000  1.0
  Li+  Li40  1  0.98965000  0.17701667  0.25000000  1.0
  Li+  Li41  1  0.98965000  0.17701667  0.75000000  1.0
  Li+  Li42  1  0.48965000  0.17701667  0.25000000  1.0
  Li+  Li43  1  0.48965000  0.17701667  0.75000000  1.0
  Li+  Li44  1  0.98965000  0.67701667  0.25000000  1.0
  Li+  Li45  1  0.98965000  0.67701667  0.75000000  1.0
  Li+  Li46  1  0.48965000  0.67701667  0.25000000  1.0
  Li+  Li47  1  0.48965000  0.67701667  0.75000000  1.0
  Li+  Li48  1  0.63535000  0.53131667  0.00000000  1.0
  Li+  Li49  1  0.63535000  0.53131667  0.50000000  1.0
  Li+  Li50  1  0.13535000  0.53131667  0.00000000  1.0
  Li+  Li51  1  0.13535000  0.53131667  0.50000000  1.0
  Li+  Li52  1  0.63535000  0.03131667  0.00000000  1.0
  Li+  Li53  1  0.63535000  0.03131667  0.50000000  1.0
  Li+  Li54  1  0.13535000  0.03131667  0.00000000  1.0
  Li+  Li55  1  0.13535000  0.03131667  0.50000000  1.0
  Li+  Li56  1  0.86465000  0.30201667  0.00000000  1.0
  Li+  Li57  1  0.86465000  0.30201667  0.50000000  1.0
  Li+  Li58  1  0.36465000  0.30201667  0.00000000  1.0
  Li+  Li59  1  0.36465000  0.30201667  0.50000000  1.0
  Li+  Li60  1  0.86465000  0.80201667  0.00000000  1.0
  Li+  Li61  1  0.86465000  0.80201667  0.50000000  1.0
  Li+  Li62  1  0.36465000  0.80201667  0.00000000  1.0
  Li+  Li63  1  0.36465000  0.80201667  0.50000000  1.0
  Li+  Li64  1  0.76035000  0.17701667  0.25000000  1.0
  Li+  Li65  1  0.76035000  0.17701667  0.75000000  1.0
  Li+  Li66  1  0.26035000  0.17701667  0.25000000  1.0
  Li+  Li67  1  0.26035000  0.17701667  0.75000000  1.0
  Li+  Li68  1  0.76035000  0.67701667  0.25000000  1.0
  Li+  Li69  1  0.76035000  0.67701667  0.75000000  1.0
  Li+  Li70  1  0.26035000  0.67701667  0.25000000  1.0
  Li+  Li71  1  0.26035000  0.67701667  0.75000000  1.0
  Li+  Li72  1  0.98965000  0.40631667  0.25000000  1.0
  Li+  Li73  1  0.98965000  0.40631667  0.75000000  1.0
  Li+  Li74  1  0.48965000  0.40631667  0.25000000  1.0
  Li+  Li75  1  0.48965000  0.40631667  0.75000000  1.0
  Li+  Li76  1  0.98965000  0.90631667  0.25000000  1.0
  Li+  Li77  1  0.98965000  0.90631667  0.75000000  1.0
  Li+  Li78  1  0.48965000  0.90631667  0.25000000  1.0
  Li+  Li79  1  0.48965000  0.90631667  0.75000000  1.0
  Li+  Li80  1  0.63535000  0.30201667  0.00000000  1.0
  Li+  Li81  1  0.63535000  0.30201667  0.50000000  1.0
  Li+  Li82  1  0.13535000  0.30201667  0.00000000  1.0
  Li+  Li83  1  0.13535000  0.30201667  0.50000000  1.0
  Li+  Li84  1  0.63535000  0.80201667  0.00000000  1.0
  Li+  Li85  1  0.63535000  0.80201667  0.50000000  1.0
  Li+  Li86  1  0.13535000  0.80201667  0.00000000  1.0
  Li+  Li87  1  0.13535000  0.80201667  0.50000000  1.0
  Li+  Li88  1  0.86465000  0.53131667  0.00000000  1.0
  Li+  Li89  1  0.86465000  0.53131667  0.50000000  1.0
  Li+  Li90  1  0.36465000  0.53131667  0.00000000  1.0
  Li+  Li91  1  0.36465000  0.53131667  0.50000000  1.0
  Li+  Li92  1  0.86465000  0.03131667  0.00000000  1.0
  Li+  Li93  1  0.86465000  0.03131667  0.50000000  1.0
  Li+  Li94  1  0.36465000  0.03131667  0.00000000  1.0
  Li+  Li95  1  0.36465000  0.03131667  0.50000000  1.0
  B3+  B96  1  0.94850000  0.36516667  0.10300000  1.0
  B3+  B97  1  0.94850000  0.36516667  0.60300000  1.0
  B3+  B98  1  0.44850000  0.36516667  0.10300000  1.0
  B3+  B99  1  0.44850000  0.36516667  0.60300000  1.0
  B3+  B100  1  0.94850000  0.86516667  0.10300000  1.0
  B3+  B101  1  0.94850000  0.86516667  0.60300000  1.0
  B3+  B102  1  0.44850000  0.86516667  0.10300000  1.0
  B3+  B103  1  0.44850000  0.86516667  0.60300000  1.0
  B3+  B104  1  0.67650000  0.34316667  0.14700000  1.0
  B3+  B105  1  0.67650000  0.34316667  0.64700000  1.0
  B3+  B106  1  0.17650000  0.34316667  0.14700000  1.0
  B3+  B107  1  0.17650000  0.34316667  0.64700000  1.0
  B3+  B108  1  0.67650000  0.84316667  0.14700000  1.0
  B3+  B109  1  0.67650000  0.84316667  0.64700000  1.0
  B3+  B110  1  0.17650000  0.84316667  0.14700000  1.0
  B3+  B111  1  0.17650000  0.84316667  0.64700000  1.0
  B3+  B112  1  0.80150000  0.21816667  0.39700000  1.0
  B3+  B113  1  0.80150000  0.21816667  0.89700000  1.0
  B3+  B114  1  0.30150000  0.21816667  0.39700000  1.0
  B3+  B115  1  0.30150000  0.21816667  0.89700000  1.0
  B3+  B116  1  0.80150000  0.71816667  0.39700000  1.0
  B3+  B117  1  0.80150000  0.71816667  0.89700000  1.0
  B3+  B118  1  0.30150000  0.71816667  0.39700000  1.0
  B3+  B119  1  0.30150000  0.71816667  0.89700000  1.0
  B3+  B120  1  0.82350000  0.49016667  0.35300000  1.0
  B3+  B121  1  0.82350000  0.49016667  0.85300000  1.0
  B3+  B122  1  0.32350000  0.49016667  0.35300000  1.0
  B3+  B123  1  0.32350000  0.49016667  0.85300000  1.0
  B3+  B124  1  0.82350000  0.99016667  0.35300000  1.0
  B3+  B125  1  0.82350000  0.99016667  0.85300000  1.0
  B3+  B126  1  0.32350000  0.99016667  0.35300000  1.0
  B3+  B127  1  0.32350000  0.99016667  0.85300000  1.0
  N3-  N128  1  0.95270000  0.26486667  0.09460000  1.0
  N3-  N129  1  0.95270000  0.26486667  0.59460000  1.0
  N3-  N130  1  0.45270000  0.26486667  0.09460000  1.0
  N3-  N131  1  0.45270000  0.26486667  0.59460000  1.0
  N3-  N132  1  0.95270000  0.76486667  0.09460000  1.0
  N3-  N133  1  0.95270000  0.76486667  0.59460000  1.0
  N3-  N134  1  0.45270000  0.76486667  0.09460000  1.0
  N3-  N135  1  0.45270000  0.76486667  0.59460000  1.0
  N3-  N136  1  0.95270000  0.47386667  0.09460000  1.0
  N3-  N137  1  0.95270000  0.47386667  0.59460000  1.0
  N3-  N138  1  0.45270000  0.47386667  0.09460000  1.0
  N3-  N139  1  0.45270000  0.47386667  0.59460000  1.0
  N3-  N140  1  0.95270000  0.97386667  0.09460000  1.0
  N3-  N141  1  0.95270000  0.97386667  0.59460000  1.0
  N3-  N142  1  0.45270000  0.97386667  0.09460000  1.0
  N3-  N143  1  0.45270000  0.97386667  0.59460000  1.0
  N3-  N144  1  0.67230000  0.23446667  0.15540000  1.0
  N3-  N145  1  0.67230000  0.23446667  0.65540000  1.0
  N3-  N146  1  0.17230000  0.23446667  0.15540000  1.0
  N3-  N147  1  0.17230000  0.23446667  0.65540000  1.0
  N3-  N148  1  0.67230000  0.73446667  0.15540000  1.0
  N3-  N149  1  0.67230000  0.73446667  0.65540000  1.0
  N3-  N150  1  0.17230000  0.73446667  0.15540000  1.0
  N3-  N151  1  0.17230000  0.73446667  0.65540000  1.0
  N3-  N152  1  0.67230000  0.44346667  0.15540000  1.0
  N3-  N153  1  0.67230000  0.44346667  0.65540000  1.0
  N3-  N154  1  0.17230000  0.44346667  0.15540000  1.0
  N3-  N155  1  0.17230000  0.44346667  0.65540000  1.0
  N3-  N156  1  0.67230000  0.94346667  0.15540000  1.0
  N3-  N157  1  0.67230000  0.94346667  0.65540000  1.0
  N3-  N158  1  0.17230000  0.94346667  0.15540000  1.0
  N3-  N159  1  0.17230000  0.94346667  0.65540000  1.0
  N3-  N160  1  0.90180000  0.21396667  0.40540000  1.0
  N3-  N161  1  0.90180000  0.21396667  0.90540000  1.0
  N3-  N162  1  0.40180000  0.21396667  0.40540000  1.0
  N3-  N163  1  0.40180000  0.21396667  0.90540000  1.0
  N3-  N164  1  0.90180000  0.71396667  0.40540000  1.0
  N3-  N165  1  0.90180000  0.71396667  0.90540000  1.0
  N3-  N166  1  0.40180000  0.71396667  0.40540000  1.0
  N3-  N167  1  0.40180000  0.71396667  0.90540000  1.0
  N3-  N168  1  0.69280000  0.21396667  0.40540000  1.0
  N3-  N169  1  0.69280000  0.21396667  0.90540000  1.0
  N3-  N170  1  0.19280000  0.21396667  0.40540000  1.0
  N3-  N171  1  0.19280000  0.21396667  0.90540000  1.0
  N3-  N172  1  0.69280000  0.71396667  0.40540000  1.0
  N3-  N173  1  0.69280000  0.71396667  0.90540000  1.0
  N3-  N174  1  0.19280000  0.71396667  0.40540000  1.0
  N3-  N175  1  0.19280000  0.71396667  0.90540000  1.0
  N3-  N176  1  0.93220000  0.49436667  0.34460000  1.0
  N3-  N177  1  0.93220000  0.49436667  0.84460000  1.0
  N3-  N178  1  0.43220000  0.49436667  0.34460000  1.0
  N3-  N179  1  0.43220000  0.49436667  0.84460000  1.0
  N3-  N180  1  0.93220000  0.99436667  0.34460000  1.0
  N3-  N181  1  0.93220000  0.99436667  0.84460000  1.0
  N3-  N182  1  0.43220000  0.99436667  0.34460000  1.0
  N3-  N183  1  0.43220000  0.99436667  0.84460000  1.0
  N3-  N184  1  0.72320000  0.49436667  0.34460000  1.0
  N3-  N185  1  0.72320000  0.49436667  0.84460000  1.0
  N3-  N186  1  0.22320000  0.49436667  0.34460000  1.0
  N3-  N187  1  0.22320000  0.49436667  0.84460000  1.0
  N3-  N188  1  0.72320000  0.99436667  0.34460000  1.0
  N3-  N189  1  0.72320000  0.99436667  0.84460000  1.0
  N3-  N190  1  0.22320000  0.99436667  0.34460000  1.0
  N3-  N191  1  0.22320000  0.99436667  0.84460000  1.0
