# generated using pymatgen
data_Li3BN2
_symmetry_space_group_name_H-M   'P 1'
_cell_length_a   13.19840000
_cell_length_b   13.19840000
_cell_length_c   13.93507066
_cell_angle_alpha   118.26613701
_cell_angle_beta   118.26613701
_cell_angle_gamma   90.00000000
_symmetry_Int_Tables_number   1
_chemical_formula_structural   Li3BN2
_chemical_formula_sum   'Li96 B32 N64'
_cell_volume   1802.65070688
_cell_formula_units_Z   32
loop_
 _symmetry_equiv_pos_site_id
 _symmetry_equiv_pos_as_xyz
  1  'x, y, z'
loop_
 _atom_type_symbol
 _atom_type_oxidation_number
  Li+  1.0
  B3+  3.0
  N3-  -3.0
loop_
 _atom_site_type_symbol
 _atom_site_label
 _atom_site_symmetry_multiplicity
 _atom_site_fract_x
 _atom_site_fract_y
 _atom_site_fract_z
 _atom_site_occupancy
  Li+  Li1  1  0.18520000  0.43520000  0.37040000  1.0
  Li+  Li1  1  0.18520000  0.43520000  0.87040000  1.0
  Li+  Li1  1  0.18520000  0.93520000  0.37040000  1.0
  Li+  Li1  1  0.18520000  0.93520000  0.87040000  1.0
  Li+  Li1  1  0.68520000  0.43520000  0.37040000  1.0
  Li+  Li1  1  0.68520000  0.43520000  0.87040000  1.0
  Li+  Li1  1  0.68520000  0.93520000  0.37040000  1.0
  Li+  Li1  1  0.68520000  0.93520000  0.87040000  1.0
  Li+  Li1  1  0.43980000  0.43980000  0.37960000  1.0
  Li+  Li1  1  0.43980000  0.43980000  0.87960000  1.0
  Li+  Li1  1  0.43980000  0.93980000  0.37960000  1.0
  Li+  Li1  1  0.43980000  0.93980000  0.87960000  1.0
  Li+  Li1  1  0.93980000  0.43980000  0.37960000  1.0
  Li+  Li1  1  0.93980000  0.43980000  0.87960000  1.0
  Li+  Li1  1  0.93980000  0.93980000  0.37960000  1.0
  Li+  Li1  1  0.93980000  0.93980000  0.87960000  1.0
  Li+  Li1  1  0.06480000  0.31480000  0.12960000  1.0
  Li+  Li1  1  0.06480000  0.31480000  0.62960000  1.0
  Li+  Li1  1  0.06480000  0.81480000  0.12960000  1.0
  Li+  Li1  1  0.06480000  0.81480000  0.62960000  1.0
  Li+  Li1  1  0.56480000  0.31480000  0.12960000  1.0
  Li+  Li1  1  0.56480000  0.31480000  0.62960000  1.0
  Li+  Li1  1  0.56480000  0.81480000  0.12960000  1.0
  Li+  Li1  1  0.56480000  0.81480000  0.62960000  1.0
  Li+  Li1  1  0.06020000  0.06020000  0.12040000  1.0
  Li+  Li1  1  0.06020000  0.06020000  0.62040000  1.0
  Li+  Li1  1  0.06020000  0.56020000  0.12040000  1.0
  Li+  Li1  1  0.06020000  0.56020000  0.62040000  1.0
  Li+  Li1  1  0.56020000  0.06020000  0.12040000  1.0
  Li+  Li1  1  0.56020000  0.06020000  0.62040000  1.0
  Li+  Li1  1  0.56020000  0.56020000  0.12040000  1.0
  Li+  Li1  1  0.56020000  0.56020000  0.62040000  1.0
  Li+  Li2  1  0.26035000  0.23965000  0.25000000  1.0
  Li+  Li2  1  0.26035000  0.23965000  0.75000000  1.0
  Li+  Li2  1  0.26035000  0.73965000  0.25000000  1.0
  Li+  Li2  1  0.26035000  0.73965000  0.75000000  1.0
  Li+  Li2  1  0.76035000  0.23965000  0.25000000  1.0
  Li+  Li2  1  0.76035000  0.23965000  0.75000000  1.0
  Li+  Li2  1  0.76035000  0.73965000  0.25000000  1.0
  Li+  Li2  1  0.76035000  0.73965000  0.75000000  1.0
  Li+  Li2  1  0.48965000  0.01035000  0.25000000  1.0
  Li+  Li2  1  0.48965000  0.01035000  0.75000000  1.0
  Li+  Li2  1  0.48965000  0.51035000  0.25000000  1.0
  Li+  Li2  1  0.48965000  0.51035000  0.75000000  1.0
  Li+  Li2  1  0.98965000  0.01035000  0.25000000  1.0
  Li+  Li2  1  0.98965000  0.01035000  0.75000000  1.0
  Li+  Li2  1  0.98965000  0.51035000  0.25000000  1.0
  Li+  Li2  1  0.98965000  0.51035000  0.75000000  1.0
  Li+  Li2  1  0.13535000  0.36465000  0.00000000  1.0
  Li+  Li2  1  0.13535000  0.36465000  0.50000000  1.0
  Li+  Li2  1  0.13535000  0.86465000  0.00000000  1.0
  Li+  Li2  1  0.13535000  0.86465000  0.50000000  1.0
  Li+  Li2  1  0.63535000  0.36465000  0.00000000  1.0
  Li+  Li2  1  0.63535000  0.36465000  0.50000000  1.0
  Li+  Li2  1  0.63535000  0.86465000  1.00000000  1.0
  Li+  Li2  1  0.63535000  0.86465000  0.50000000  1.0
  Li+  Li2  1  0.36465000  0.13535000  0.00000000  1.0
  Li+  Li2  1  0.36465000  0.13535000  0.50000000  1.0
  Li+  Li2  1  0.36465000  0.63535000  0.00000000  1.0
  Li+  Li2  1  0.36465000  0.63535000  0.50000000  1.0
  Li+  Li2  1  0.86465000  0.13535000  1.00000000  1.0
  Li+  Li2  1  0.86465000  0.13535000  0.50000000  1.0
  Li+  Li2  1  0.86465000  0.63535000  1.00000000  1.0
  Li+  Li2  1  0.86465000  0.63535000  0.50000000  1.0
  Li+  Li2  1  0.48965000  0.23965000  0.25000000  1.0
  Li+  Li2  1  0.48965000  0.23965000  0.75000000  1.0
  Li+  Li2  1  0.48965000  0.73965000  0.25000000  1.0
  Li+  Li2  1  0.48965000  0.73965000  0.75000000  1.0
  Li+  Li2  1  0.98965000  0.23965000  0.25000000  1.0
  Li+  Li2  1  0.98965000  0.23965000  0.75000000  1.0
  Li+  Li2  1  0.98965000  0.73965000  0.25000000  1.0
  Li+  Li2  1  0.98965000  0.73965000  0.75000000  1.0
  Li+  Li2  1  0.26035000  0.01035000  0.25000000  1.0
  Li+  Li2  1  0.26035000  0.01035000  0.75000000  1.0
  Li+  Li2  1  0.26035000  0.51035000  0.25000000  1.0
  Li+  Li2  1  0.26035000  0.51035000  0.75000000  1.0
  Li+  Li2  1  0.76035000  0.01035000  0.25000000  1.0
  Li+  Li2  1  0.76035000  0.01035000  0.75000000  1.0
  Li+  Li2  1  0.76035000  0.51035000  0.25000000  1.0
  Li+  Li2  1  0.76035000  0.51035000  0.75000000  1.0
  Li+  Li2  1  0.36465000  0.36465000  0.00000000  1.0
  Li+  Li2  1  0.36465000  0.36465000  0.50000000  1.0
  Li+  Li2  1  0.36465000  0.86465000  1.00000000  1.0
  Li+  Li2  1  0.36465000  0.86465000  0.50000000  1.0
  Li+  Li2  1  0.86465000  0.36465000  0.00000000  1.0
  Li+  Li2  1  0.86465000  0.36465000  0.50000000  1.0
  Li+  Li2  1  0.86465000  0.86465000  0.00000000  1.0
  Li+  Li2  1  0.86465000  0.86465000  0.50000000  1.0
  Li+  Li2  1  0.13535000  0.13535000  0.00000000  1.0
  Li+  Li2  1  0.13535000  0.13535000  0.50000000  1.0
  Li+  Li2  1  0.13535000  0.63535000  0.00000000  1.0
  Li+  Li2  1  0.13535000  0.63535000  0.50000000  1.0
  Li+  Li2  1  0.63535000  0.13535000  0.00000000  1.0
  Li+  Li2  1  0.63535000  0.13535000  0.50000000  1.0
  Li+  Li2  1  0.63535000  0.63535000  0.00000000  1.0
  Li+  Li2  1  0.63535000  0.63535000  0.50000000  1.0
  B3+  B1  1  0.30150000  0.05150000  0.10300000  1.0
  B3+  B1  1  0.30150000  0.05150000  0.60300000  1.0
  B3+  B1  1  0.30150000  0.55150000  0.10300000  1.0
  B3+  B1  1  0.30150000  0.55150000  0.60300000  1.0
  B3+  B1  1  0.80150000  0.05150000  0.10300000  1.0
  B3+  B1  1  0.80150000  0.05150000  0.60300000  1.0
  B3+  B1  1  0.80150000  0.55150000  0.10300000  1.0
  B3+  B1  1  0.80150000  0.55150000  0.60300000  1.0
  B3+  B1  1  0.32350000  0.32350000  0.14700000  1.0
  B3+  B1  1  0.32350000  0.32350000  0.64700000  1.0
  B3+  B1  1  0.32350000  0.82350000  0.14700000  1.0
  B3+  B1  1  0.32350000  0.82350000  0.64700000  1.0
  B3+  B1  1  0.82350000  0.32350000  0.14700000  1.0
  B3+  B1  1  0.82350000  0.32350000  0.64700000  1.0
  B3+  B1  1  0.82350000  0.82350000  0.14700000  1.0
  B3+  B1  1  0.82350000  0.82350000  0.64700000  1.0
  B3+  B1  1  0.44850000  0.19850000  0.39700000  1.0
  B3+  B1  1  0.44850000  0.19850000  0.89700000  1.0
  B3+  B1  1  0.44850000  0.69850000  0.39700000  1.0
  B3+  B1  1  0.44850000  0.69850000  0.89700000  1.0
  B3+  B1  1  0.94850000  0.19850000  0.39700000  1.0
  B3+  B1  1  0.94850000  0.19850000  0.89700000  1.0
  B3+  B1  1  0.94850000  0.69850000  0.39700000  1.0
  B3+  B1  1  0.94850000  0.69850000  0.89700000  1.0
  B3+  B1  1  0.17650000  0.17650000  0.35300000  1.0
  B3+  B1  1  0.17650000  0.17650000  0.85300000  1.0
  B3+  B1  1  0.17650000  0.67650000  0.35300000  1.0
  B3+  B1  1  0.17650000  0.67650000  0.85300000  1.0
  B3+  B1  1  0.67650000  0.17650000  0.35300000  1.0
  B3+  B1  1  0.67650000  0.17650000  0.85300000  1.0
  B3+  B1  1  0.67650000  0.67650000  0.35300000  1.0
  B3+  B1  1  0.67650000  0.67650000  0.85300000  1.0
  N3-  N1  1  0.40180000  0.04730000  0.09460000  1.0
  N3-  N1  1  0.40180000  0.04730000  0.59460000  1.0
  N3-  N1  1  0.40180000  0.54730000  0.09460000  1.0
  N3-  N1  1  0.40180000  0.54730000  0.59460000  1.0
  N3-  N1  1  0.90180000  0.04730000  0.09460000  1.0
  N3-  N1  1  0.90180000  0.04730000  0.59460000  1.0
  N3-  N1  1  0.90180000  0.54730000  0.09460000  1.0
  N3-  N1  1  0.90180000  0.54730000  0.59460000  1.0
  N3-  N1  1  0.19280000  0.04730000  0.09460000  1.0
  N3-  N1  1  0.19280000  0.04730000  0.59460000  1.0
  N3-  N1  1  0.19280000  0.54730000  0.09460000  1.0
  N3-  N1  1  0.19280000  0.54730000  0.59460000  1.0
  N3-  N1  1  0.69280000  0.04730000  0.09460000  1.0
  N3-  N1  1  0.69280000  0.04730000  0.59460000  1.0
  N3-  N1  1  0.69280000  0.54730000  0.09460000  1.0
  N3-  N1  1  0.69280000  0.54730000  0.59460000  1.0
  N3-  N1  1  0.43220000  0.32770000  0.15540000  1.0
  N3-  N1  1  0.43220000  0.32770000  0.65540000  1.0
  N3-  N1  1  0.43220000  0.82770000  0.15540000  1.0
  N3-  N1  1  0.43220000  0.82770000  0.65540000  1.0
  N3-  N1  1  0.93220000  0.32770000  0.15540000  1.0
  N3-  N1  1  0.93220000  0.32770000  0.65540000  1.0
  N3-  N1  1  0.93220000  0.82770000  0.15540000  1.0
  N3-  N1  1  0.93220000  0.82770000  0.65540000  1.0
  N3-  N1  1  0.22320000  0.32770000  0.15540000  1.0
  N3-  N1  1  0.22320000  0.32770000  0.65540000  1.0
  N3-  N1  1  0.22320000  0.82770000  0.15540000  1.0
  N3-  N1  1  0.22320000  0.82770000  0.65540000  1.0
  N3-  N1  1  0.72320000  0.32770000  0.15540000  1.0
  N3-  N1  1  0.72320000  0.32770000  0.65540000  1.0
  N3-  N1  1  0.72320000  0.82770000  0.15540000  1.0
  N3-  N1  1  0.72320000  0.82770000  0.65540000  1.0
  N3-  N1  1  0.45270000  0.09820000  0.40540000  1.0
  N3-  N1  1  0.45270000  0.09820000  0.90540000  1.0
  N3-  N1  1  0.45270000  0.59820000  0.40540000  1.0
  N3-  N1  1  0.45270000  0.59820000  0.90540000  1.0
  N3-  N1  1  0.95270000  0.09820000  0.40540000  1.0
  N3-  N1  1  0.95270000  0.09820000  0.90540000  1.0
  N3-  N1  1  0.95270000  0.59820000  0.40540000  1.0
  N3-  N1  1  0.95270000  0.59820000  0.90540000  1.0
  N3-  N1  1  0.45270000  0.30720000  0.40540000  1.0
  N3-  N1  1  0.45270000  0.30720000  0.90540000  1.0
  N3-  N1  1  0.45270000  0.80720000  0.40540000  1.0
  N3-  N1  1  0.45270000  0.80720000  0.90540000  1.0
  N3-  N1  1  0.95270000  0.30720000  0.40540000  1.0
  N3-  N1  1  0.95270000  0.30720000  0.90540000  1.0
  N3-  N1  1  0.95270000  0.80720000  0.40540000  1.0
  N3-  N1  1  0.95270000  0.80720000  0.90540000  1.0
  N3-  N1  1  0.17230000  0.06780000  0.34460000  1.0
  N3-  N1  1  0.17230000  0.06780000  0.84460000  1.0
  N3-  N1  1  0.17230000  0.56780000  0.34460000  1.0
  N3-  N1  1  0.17230000  0.56780000  0.84460000  1.0
  N3-  N1  1  0.67230000  0.06780000  0.34460000  1.0
  N3-  N1  1  0.67230000  0.06780000  0.84460000  1.0
  N3-  N1  1  0.67230000  0.56780000  0.34460000  1.0
  N3-  N1  1  0.67230000  0.56780000  0.84460000  1.0
  N3-  N1  1  0.17230000  0.27680000  0.34460000  1.0
  N3-  N1  1  0.17230000  0.27680000  0.84460000  1.0
  N3-  N1  1  0.17230000  0.77680000  0.34460000  1.0
  N3-  N1  1  0.17230000  0.77680000  0.84460000  1.0
  N3-  N1  1  0.67230000  0.27680000  0.34460000  1.0
  N3-  N1  1  0.67230000  0.27680000  0.84460000  1.0
  N3-  N1  1  0.67230000  0.77680000  0.34460000  1.0
  N3-  N1  1  0.67230000  0.77680000  0.84460000  1.0
