# generated using pymatgen
data_Sr5Li7La8Ti20O60
_symmetry_space_group_name_H-M   'P 1'
_cell_length_a   19.42850000
_cell_length_b   7.77140000
_cell_length_c   7.77140000
_cell_angle_alpha   90.00000000
_cell_angle_beta   90.00000000
_cell_angle_gamma   90.00000000
_symmetry_Int_Tables_number   1
_chemical_formula_structural   Sr5Li7La8Ti20O60
_chemical_formula_sum   'Sr5 Li7 La8 Ti20 O60'
_cell_volume   1173.37761218
_cell_formula_units_Z   1
loop_
 _symmetry_equiv_pos_site_id
 _symmetry_equiv_pos_as_xyz
  1  'x, y, z'
loop_
 _atom_type_symbol
 _atom_type_oxidation_number
  Sr2+  2.0
  Li+  1.0
  La3+  3.0
  Ti4+  4.0
  O2-  -2.0
loop_
 _atom_site_type_symbol
 _atom_site_label
 _atom_site_symmetry_multiplicity
 _atom_site_fract_x
 _atom_site_fract_y
 _atom_site_fract_z
 _atom_site_occupancy
  Sr2+  Sr0  1  0.00000000  0.00000000  0.25000000  1.0
  Sr2+  Sr1  1  0.99624086  0.49678787  0.25391420  1.0
  Sr2+  Sr2  1  0.20000000  0.50000000  0.75000000  1.0
  Sr2+  Sr3  1  0.20000000  0.00000000  0.25000000  1.0
  Sr2+  Sr4  1  0.40000000  0.50000000  0.25000000  1.0
  Li+  Li5  1  0.00000000  0.00000000  0.75000000  1.0
  Li+  Li6  1  0.20000000  0.50000000  0.25000000  1.0
  Li+  Li7  1  0.40000000  0.00000000  0.75000000  1.0
  Li+  Li8  1  0.60000000  0.00000000  0.75000000  1.0
  Li+  Li9  1  0.60000000  0.50000000  0.25000000  1.0
  Li+  Li10  1  0.80000000  0.50000000  0.75000000  1.0
  Li+  Li11  1  0.80024763  0.49868116  0.25065567  1.0
  La3+  La12  1  0.00000000  0.50000000  0.75000000  1.0
  La3+  La13  1  0.19513493  0.99918579  0.74978387  1.0
  La3+  La14  1  0.40000000  0.50000000  0.75000000  1.0
  La3+  La15  1  0.40000000  0.00000000  0.25000000  1.0
  La3+  La16  1  0.60000000  0.50000000  0.75000000  1.0
  La3+  La17  1  0.60000000  0.00000000  0.25000000  1.0
  La3+  La18  1  0.80028327  0.99346440  0.74850499  1.0
  La3+  La19  1  0.80044190  0.99905204  0.24719953  1.0
  Ti4+  Ti20  1  0.10000000  0.75000000  0.50000000  1.0
  Ti4+  Ti21  1  0.10000000  0.25000000  0.50000000  1.0
  Ti4+  Ti22  1  0.10096528  0.74954837  0.99786446  1.0
  Ti4+  Ti23  1  0.10000000  0.25000000  0.00000000  1.0
  Ti4+  Ti24  1  0.30000000  0.75000000  0.50000000  1.0
  Ti4+  Ti25  1  0.30000000  0.25000000  0.50000000  1.0
  Ti4+  Ti26  1  0.30000000  0.75000000  0.00000000  1.0
  Ti4+  Ti27  1  0.30000000  0.25000000  0.00000000  1.0
  Ti4+  Ti28  1  0.50000000  0.75000000  0.50000000  1.0
  Ti4+  Ti29  1  0.50000000  0.25000000  0.50000000  1.0
  Ti4+  Ti30  1  0.50000000  0.75000000  0.00000000  1.0
  Ti4+  Ti31  1  0.50105910  0.24762583  0.99800805  1.0
  Ti4+  Ti32  1  0.70000000  0.75000000  0.50000000  1.0
  Ti4+  Ti33  1  0.70146274  0.25011384  0.50130663  1.0
  Ti4+  Ti34  1  0.70000000  0.75000000  0.00000000  1.0
  Ti4+  Ti35  1  0.70000000  0.25000000  0.00000000  1.0
  Ti4+  Ti36  1  0.90000000  0.75000000  0.50000000  1.0
  Ti4+  Ti37  1  0.90000000  0.25000000  0.50000000  1.0
  Ti4+  Ti38  1  0.90000000  0.75000000  0.00000000  1.0
  Ti4+  Ti39  1  0.90000000  0.25000000  0.00000000  1.0
  O2-  O40  1  0.00000000  0.75000000  0.50000000  1.0
  O2-  O41  1  0.00000000  0.25000000  0.50000000  1.0
  O2-  O42  1  0.00000000  0.75000000  0.00000000  1.0
  O2-  O43  1  0.00000000  0.25000000  0.00000000  1.0
  O2-  O44  1  0.20000000  0.75000000  0.50000000  1.0
  O2-  O45  1  0.20000000  0.25000000  0.50000000  1.0
  O2-  O46  1  0.20000000  0.75000000  0.00000000  1.0
  O2-  O47  1  0.20000000  0.25000000  0.00000000  1.0
  O2-  O48  1  0.40000000  0.75000000  0.50000000  1.0
  O2-  O49  1  0.39845341  0.24786426  0.49868034  1.0
  O2-  O50  1  0.40000000  0.75000000  0.00000000  1.0
  O2-  O51  1  0.40000000  0.25000000  0.00000000  1.0
  O2-  O52  1  0.60000000  0.75000000  0.50000000  1.0
  O2-  O53  1  0.60000000  0.25000000  0.50000000  1.0
  O2-  O54  1  0.60000000  0.75000000  0.00000000  1.0
  O2-  O55  1  0.59809440  0.25318217  0.99835955  1.0
  O2-  O56  1  0.80000000  0.75000000  0.50000000  1.0
  O2-  O57  1  0.80000000  0.25000000  0.50000000  1.0
  O2-  O58  1  0.79789745  0.75253364  0.00047025  1.0
  O2-  O59  1  0.80000000  0.25000000  0.00000000  1.0
  O2-  O60  1  0.10000000  0.00000000  0.50000000  1.0
  O2-  O61  1  0.09767324  0.50111964  0.50486243  1.0
  O2-  O62  1  0.10000000  0.00000000  0.00000000  1.0
  O2-  O63  1  0.10000000  0.50000000  0.00000000  1.0
  O2-  O64  1  0.30000000  0.00000000  0.50000000  1.0
  O2-  O65  1  0.30000000  0.50000000  0.50000000  1.0
  O2-  O66  1  0.30000000  0.00000000  0.00000000  1.0
  O2-  O67  1  0.30000000  0.50000000  0.00000000  1.0
  O2-  O68  1  0.49935968  0.00126711  0.50067774  1.0
  O2-  O69  1  0.50000000  0.50000000  0.50000000  1.0
  O2-  O70  1  0.50000000  0.00000000  0.00000000  1.0
  O2-  O71  1  0.50000000  0.50000000  0.00000000  1.0
  O2-  O72  1  0.69958801  0.00051310  0.50044542  1.0
  O2-  O73  1  0.70000000  0.50000000  0.50000000  1.0
  O2-  O74  1  0.69791575  0.99977902  0.99983838  1.0
  O2-  O75  1  0.70000000  0.50000000  0.00000000  1.0
  O2-  O76  1  0.89805976  0.99714418  0.49924949  1.0
  O2-  O77  1  0.89764710  0.50378255  0.49648849  1.0
  O2-  O78  1  0.90000000  0.00000000  0.00000000  1.0
  O2-  O79  1  0.90000000  0.50000000  0.00000000  1.0
  O2-  O80  1  0.10000000  0.75000000  0.75000000  1.0
  O2-  O81  1  0.10232239  0.25117483  0.75068563  1.0
  O2-  O82  1  0.10000000  0.75000000  0.25000000  1.0
  O2-  O83  1  0.10000000  0.25000000  0.25000000  1.0
  O2-  O84  1  0.30000000  0.75000000  0.75000000  1.0
  O2-  O85  1  0.29943902  0.25165429  0.75101662  1.0
  O2-  O86  1  0.30000000  0.75000000  0.25000000  1.0
  O2-  O87  1  0.30041468  0.25335331  0.25196113  1.0
  O2-  O88  1  0.50000000  0.75000000  0.75000000  1.0
  O2-  O89  1  0.50000000  0.25000000  0.75000000  1.0
  O2-  O90  1  0.50000000  0.75000000  0.25000000  1.0
  O2-  O91  1  0.49794637  0.25199569  0.24680795  1.0
  O2-  O92  1  0.69771521  0.74927820  0.75173216  1.0
  O2-  O93  1  0.70310833  0.25033216  0.74654934  1.0
  O2-  O94  1  0.70000000  0.75000000  0.25000000  1.0
  O2-  O95  1  0.70000000  0.25000000  0.25000000  1.0
  O2-  O96  1  0.89686508  0.75356413  0.74719916  1.0
  O2-  O97  1  0.89970908  0.25713653  0.75277636  1.0
  O2-  O98  1  0.90000000  0.75000000  0.25000000  1.0
  O2-  O99  1  0.90000000  0.25000000  0.25000000  1.0
