# generated using pymatgen
data_Sr5Li7La8Ti20O60
_symmetry_space_group_name_H-M   'P 1'
_cell_length_a   19.42850000
_cell_length_b   7.77140000
_cell_length_c   7.77140000
_cell_angle_alpha   90.00000000
_cell_angle_beta   90.00000000
_cell_angle_gamma   90.00000000
_symmetry_Int_Tables_number   1
_chemical_formula_structural   Sr5Li7La8Ti20O60
_chemical_formula_sum   'Sr5 Li7 La8 Ti20 O60'
_cell_volume   1173.37761218
_cell_formula_units_Z   1
loop_
 _symmetry_equiv_pos_site_id
 _symmetry_equiv_pos_as_xyz
  1  'x, y, z'
loop_
 _atom_type_symbol
 _atom_type_oxidation_number
  Sr2+  2.0
  Li+  1.0
  La3+  3.0
  Ti4+  4.0
  O2-  -2.0
loop_
 _atom_site_type_symbol
 _atom_site_label
 _atom_site_symmetry_multiplicity
 _atom_site_fract_x
 _atom_site_fract_y
 _atom_site_fract_z
 _atom_site_occupancy
  Sr2+  Sr0  1  0.00000000  0.50000000  0.00000000  1.0
  Sr2+  Sr1  1  0.00000000  0.50000000  0.50000000  1.0
  Sr2+  Sr2  1  0.20000000  0.00000000  0.50000000  1.0
  Sr2+  Sr3  1  0.20000000  0.50000000  0.00000000  1.0
  Sr2+  Sr4  1  0.40000000  0.50000000  0.50000000  1.0
  Li+  Li5  1  0.00000000  0.00000000  0.00000000  1.0
  Li+  Li6  1  0.20000000  0.50000000  0.50000000  1.0
  Li+  Li7  1  0.40000000  0.00000000  0.00000000  1.0
  Li+  Li8  1  0.60000000  0.00000000  0.00000000  1.0
  Li+  Li9  1  0.60000000  0.50000000  0.50000000  1.0
  Li+  Li10  1  0.80000000  0.00000000  0.50000000  1.0
  Li+  Li11  1  0.80000000  0.50000000  0.50000000  1.0
  La3+  La12  1  0.00000000  0.00000000  0.50000000  1.0
  La3+  La13  1  0.20000000  0.00000000  0.00000000  1.0
  La3+  La14  1  0.40000000  0.00000000  0.50000000  1.0
  La3+  La15  1  0.40000000  0.50000000  0.00000000  1.0
  La3+  La16  1  0.60000000  0.00000000  0.50000000  1.0
  La3+  La17  1  0.60000000  0.50000000  0.00000000  1.0
  La3+  La18  1  0.80000000  0.00000000  0.00000000  1.0
  La3+  La19  1  0.80000000  0.50000000  0.00000000  1.0
  Ti4+  Ti1  1  0.10000000  0.25000000  0.25000000  1.0
  Ti4+  Ti1  1  0.10000000  0.25000000  0.75000000  1.0
  Ti4+  Ti1  1  0.10000000  0.75000000  0.25000000  1.0
  Ti4+  Ti1  1  0.10000000  0.75000000  0.75000000  1.0
  Ti4+  Ti1  1  0.30000000  0.25000000  0.25000000  1.0
  Ti4+  Ti1  1  0.30000000  0.25000000  0.75000000  1.0
  Ti4+  Ti1  1  0.30000000  0.75000000  0.25000000  1.0
  Ti4+  Ti1  1  0.30000000  0.75000000  0.75000000  1.0
  Ti4+  Ti1  1  0.50000000  0.25000000  0.25000000  1.0
  Ti4+  Ti1  1  0.50000000  0.25000000  0.75000000  1.0
  Ti4+  Ti1  1  0.50000000  0.75000000  0.25000000  1.0
  Ti4+  Ti1  1  0.50000000  0.75000000  0.75000000  1.0
  Ti4+  Ti1  1  0.70000000  0.25000000  0.25000000  1.0
  Ti4+  Ti1  1  0.70000000  0.25000000  0.75000000  1.0
  Ti4+  Ti1  1  0.70000000  0.75000000  0.25000000  1.0
  Ti4+  Ti1  1  0.70000000  0.75000000  0.75000000  1.0
  Ti4+  Ti1  1  0.90000000  0.25000000  0.25000000  1.0
  Ti4+  Ti1  1  0.90000000  0.25000000  0.75000000  1.0
  Ti4+  Ti1  1  0.90000000  0.75000000  0.25000000  1.0
  Ti4+  Ti1  1  0.90000000  0.75000000  0.75000000  1.0
  O2-  O1  1  0.00000000  0.25000000  0.25000000  1.0
  O2-  O1  1  0.00000000  0.25000000  0.75000000  1.0
  O2-  O1  1  0.00000000  0.75000000  0.25000000  1.0
  O2-  O1  1  0.00000000  0.75000000  0.75000000  1.0
  O2-  O1  1  0.20000000  0.25000000  0.25000000  1.0
  O2-  O1  1  0.20000000  0.25000000  0.75000000  1.0
  O2-  O1  1  0.20000000  0.75000000  0.25000000  1.0
  O2-  O1  1  0.20000000  0.75000000  0.75000000  1.0
  O2-  O1  1  0.40000000  0.25000000  0.25000000  1.0
  O2-  O1  1  0.40000000  0.25000000  0.75000000  1.0
  O2-  O1  1  0.40000000  0.75000000  0.25000000  1.0
  O2-  O1  1  0.40000000  0.75000000  0.75000000  1.0
  O2-  O1  1  0.60000000  0.25000000  0.25000000  1.0
  O2-  O1  1  0.60000000  0.25000000  0.75000000  1.0
  O2-  O1  1  0.60000000  0.75000000  0.25000000  1.0
  O2-  O1  1  0.60000000  0.75000000  0.75000000  1.0
  O2-  O1  1  0.80000000  0.25000000  0.25000000  1.0
  O2-  O1  1  0.80000000  0.25000000  0.75000000  1.0
  O2-  O1  1  0.80000000  0.75000000  0.25000000  1.0
  O2-  O1  1  0.80000000  0.75000000  0.75000000  1.0
  O2-  O1  1  0.10000000  0.25000000  0.00000000  1.0
  O2-  O1  1  0.10000000  0.25000000  0.50000000  1.0
  O2-  O1  1  0.10000000  0.75000000  0.00000000  1.0
  O2-  O1  1  0.10000000  0.75000000  0.50000000  1.0
  O2-  O1  1  0.30000000  0.25000000  0.00000000  1.0
  O2-  O1  1  0.30000000  0.25000000  0.50000000  1.0
  O2-  O1  1  0.30000000  0.75000000  0.00000000  1.0
  O2-  O1  1  0.30000000  0.75000000  0.50000000  1.0
  O2-  O1  1  0.50000000  0.25000000  0.00000000  1.0
  O2-  O1  1  0.50000000  0.25000000  0.50000000  1.0
  O2-  O1  1  0.50000000  0.75000000  0.00000000  1.0
  O2-  O1  1  0.50000000  0.75000000  0.50000000  1.0
  O2-  O1  1  0.70000000  0.25000000  0.00000000  1.0
  O2-  O1  1  0.70000000  0.25000000  0.50000000  1.0
  O2-  O1  1  0.70000000  0.75000000  0.00000000  1.0
  O2-  O1  1  0.70000000  0.75000000  0.50000000  1.0
  O2-  O1  1  0.90000000  0.25000000  0.00000000  1.0
  O2-  O1  1  0.90000000  0.25000000  0.50000000  1.0
  O2-  O1  1  0.90000000  0.75000000  0.00000000  1.0
  O2-  O1  1  0.90000000  0.75000000  0.50000000  1.0
  O2-  O1  1  0.10000000  0.00000000  0.25000000  1.0
  O2-  O1  1  0.10000000  0.00000000  0.75000000  1.0
  O2-  O1  1  0.10000000  0.50000000  0.25000000  1.0
  O2-  O1  1  0.10000000  0.50000000  0.75000000  1.0
  O2-  O1  1  0.30000000  0.00000000  0.25000000  1.0
  O2-  O1  1  0.30000000  0.00000000  0.75000000  1.0
  O2-  O1  1  0.30000000  0.50000000  0.25000000  1.0
  O2-  O1  1  0.30000000  0.50000000  0.75000000  1.0
  O2-  O1  1  0.50000000  0.00000000  0.25000000  1.0
  O2-  O1  1  0.50000000  0.00000000  0.75000000  1.0
  O2-  O1  1  0.50000000  0.50000000  0.25000000  1.0
  O2-  O1  1  0.50000000  0.50000000  0.75000000  1.0
  O2-  O1  1  0.70000000  0.00000000  0.25000000  1.0
  O2-  O1  1  0.70000000  0.00000000  0.75000000  1.0
  O2-  O1  1  0.70000000  0.50000000  0.25000000  1.0
  O2-  O1  1  0.70000000  0.50000000  0.75000000  1.0
  O2-  O1  1  0.90000000  0.00000000  0.25000000  1.0
  O2-  O1  1  0.90000000  0.00000000  0.75000000  1.0
  O2-  O1  1  0.90000000  0.50000000  0.25000000  1.0
  O2-  O1  1  0.90000000  0.50000000  0.75000000  1.0
