# generated using pymatgen
data_Li22La12SmTa7O48
_symmetry_space_group_name_H-M   'P 1'
_cell_length_a   22.20593058
_cell_length_b   11.10296529
_cell_length_c   11.10296529
_cell_angle_alpha   109.47122063
_cell_angle_beta   70.52877937
_cell_angle_gamma   70.52877937
_symmetry_Int_Tables_number   1
_chemical_formula_structural   Li22La12SmTa7O48
_chemical_formula_sum   'Li44 La24 Sm2 Ta14 O96'
_cell_volume   2107.29361551
_cell_formula_units_Z   2
loop_
 _symmetry_equiv_pos_site_id
 _symmetry_equiv_pos_as_xyz
  1  'x, y, z'
loop_
 _atom_type_symbol
 _atom_type_oxidation_number
  Li+  1.0
  La3+  3.0
  Sm3+  3.0
  Ta5+  5.0
  O2-  -2.0
loop_
 _atom_site_type_symbol
 _atom_site_label
 _atom_site_symmetry_multiplicity
 _atom_site_fract_x
 _atom_site_fract_y
 _atom_site_fract_z
 _atom_site_occupancy
  Li+  Li0  1  0.11825000  0.59130000  0.23680000  1.0
  Li+  Li1  1  0.61825000  0.59130000  0.23680000  1.0
  Li+  Li2  1  0.20576160  0.98349675  0.01414158  1.0
  Li+  Li3  1  0.70435000  0.98680000  0.01350000  1.0
  Li+  Li4  1  0.36165000  0.51320000  0.85450000  1.0
  Li+  Li5  1  0.86165000  0.51320000  0.85450000  1.0
  Li+  Li6  1  0.00652225  0.76923191  0.84102078  1.0
  Li+  Li7  1  0.50660000  0.76350000  0.84130000  1.0
  Li+  Li8  1  0.44775000  0.09130000  0.07780000  1.0
  Li+  Li9  1  0.94775000  0.09130000  0.07780000  1.0
  Li+  Li10  1  0.13743016  0.48633154  0.64282623  1.0
  Li+  Li11  1  0.63835000  0.48680000  0.64550000  1.0
  Li+  Li12  1  0.16390000  0.26350000  0.02670000  1.0
  Li+  Li13  1  0.66390000  0.26350000  0.02670000  1.0
  Li+  Li14  1  0.11165000  0.10450000  0.26320000  1.0
  Li+  Li15  1  0.61165000  0.10450000  0.26320000  1.0
  Li+  Li16  1  0.36165000  0.76350000  0.42220000  1.0
  Li+  Li17  1  0.86165000  0.76350000  0.42220000  1.0
  Li+  Li18  1  0.05760000  0.94240000  0.44240000  1.0
  Li+  Li19  1  0.55760000  0.94240000  0.44240000  1.0
  Li+  Li20  1  0.12500000  0.19240000  0.55760000  1.0
  Li+  Li21  1  0.62500000  0.19240000  0.55760000  1.0
  Li+  Li22  1  0.22120000  0.61520000  0.55760000  1.0
  Li+  Li23  1  0.72120000  0.61520000  0.55760000  1.0
  Li+  Li24  1  0.30760000  0.69240000  0.69240000  1.0
  Li+  Li25  1  0.80760000  0.69240000  0.69240000  1.0
  Li+  Li26  1  0.27880000  0.05760000  0.50000000  1.0
  Li+  Li27  1  0.77665988  0.06007821  0.49817009  1.0
  Li+  Li28  1  0.43750000  0.87500000  0.00000000  1.0
  Li+  Li29  1  0.93750000  0.87500000  0.00000000  1.0
  Li+  Li30  1  0.18750000  0.25000000  0.62500000  1.0
  Li+  Li31  1  0.68877246  0.25202311  0.62790669  1.0
  Li+  Li32  1  0.37713573  0.37217096  0.87218616  1.0
  Li+  Li33  1  0.87536589  0.37484116  0.87390790  1.0
  Li+  Li34  1  0.12311192  0.12482823  0.12482542  1.0
  Li+  Li35  1  0.62546331  0.12588202  0.12421893  1.0
  Li+  Li36  1  0.06250000  0.12500000  0.50000000  1.0
  Li+  Li37  1  0.56250000  0.12500000  0.50000000  1.0
  Li+  Li38  1  0.18750000  0.37500000  0.00000000  1.0
  Li+  Li39  1  0.68750000  0.37500000  0.00000000  1.0
  Li+  Li40  1  0.43750000  0.25000000  0.12500000  1.0
  Li+  Li41  1  0.93520215  0.24886999  0.12516098  1.0
  Li+  Li42  1  0.31250000  0.75000000  0.87500000  1.0
  Li+  Li43  1  0.81250000  0.75000000  0.87500000  1.0
  La3+  La44  1  0.37500000  0.62500000  0.12500000  1.0
  La3+  La45  1  0.87157977  0.62459616  0.12614218  1.0
  La3+  La46  1  0.12500000  0.87500000  0.87500000  1.0
  La3+  La47  1  0.62924270  0.87494346  0.87490987  1.0
  La3+  La48  1  0.06250000  0.62500000  0.00000000  1.0
  La3+  La49  1  0.56250000  0.62500000  0.00000000  1.0
  La3+  La50  1  0.19186640  0.87673462  0.49767684  1.0
  La3+  La51  1  0.68750000  0.87500000  0.50000000  1.0
  La3+  La52  1  0.18750000  0.75000000  0.12500000  1.0
  La3+  La53  1  0.68750000  0.75000000  0.12500000  1.0
  La3+  La54  1  0.06250000  0.25000000  0.87500000  1.0
  La3+  La55  1  0.56250000  0.25000000  0.87500000  1.0
  La3+  La56  1  0.12500000  0.37500000  0.37500000  1.0
  La3+  La57  1  0.62604683  0.37223156  0.37450020  1.0
  La3+  La58  1  0.37500000  0.12500000  0.62500000  1.0
  La3+  La59  1  0.87500000  0.12500000  0.62500000  1.0
  La3+  La60  1  0.43750000  0.37500000  0.50000000  1.0
  La3+  La61  1  0.93750000  0.37500000  0.50000000  1.0
  La3+  La62  1  0.31250000  0.12500000  0.00000000  1.0
  La3+  La63  1  0.81250000  0.12500000  0.00000000  1.0
  La3+  La64  1  0.31250000  0.25000000  0.37500000  1.0
  La3+  La65  1  0.81215899  0.24632542  0.37477614  1.0
  La3+  La66  1  0.43750000  0.75000000  0.62500000  1.0
  La3+  La67  1  0.93750000  0.75000000  0.62500000  1.0
  Sm3+  Sm68  1  0.25000000  0.00000000  0.75000000  1.0
  Sm3+  Sm69  1  0.75000000  0.00000000  0.75000000  1.0
  Ta5+  Ta70  1  0.00081638  0.50170165  0.74945955  1.0
  Ta5+  Ta71  1  0.50000000  0.50000000  0.75000000  1.0
  Ta5+  Ta72  1  0.25351622  0.49953298  0.24869339  1.0
  Ta5+  Ta73  1  0.75000000  0.50000000  0.25000000  1.0
  Ta5+  Ta74  1  0.00000000  0.00000000  0.25000000  1.0
  Ta5+  Ta75  1  0.50000000  0.00000000  0.25000000  1.0
  Ta5+  Ta76  1  0.00000000  0.50000000  0.25000000  1.0
  Ta5+  Ta77  1  0.50000000  0.50000000  0.25000000  1.0
  Ta5+  Ta78  1  0.24864747  0.49893115  0.75532035  1.0
  Ta5+  Ta79  1  0.75039898  0.50195987  0.75023377  1.0
  Ta5+  Ta80  1  0.25000000  0.00000000  0.25000000  1.0
  Ta5+  Ta81  1  0.75090255  0.99701205  0.25206044  1.0
  Ta5+  Ta82  1  0.00206934  0.99913637  0.74745552  1.0
  Ta5+  Ta83  1  0.50000000  0.00000000  0.75000000  1.0
  O2-  O84  1  0.45345000  0.67730000  0.23280000  1.0
  O2-  O85  1  0.95630965  0.68028121  0.23258083  1.0
  O2-  O86  1  0.29655000  0.88970000  0.33420000  1.0
  O2-  O87  1  0.79655000  0.88970000  0.33420000  1.0
  O2-  O88  1  0.15275000  0.61030000  0.76720000  1.0
  O2-  O89  1  0.64961791  0.60830230  0.76882055  1.0
  O2-  O90  1  0.09725000  0.82270000  0.66580000  1.0
  O2-  O91  1  0.59725000  0.82270000  0.66580000  1.0
  O2-  O92  1  0.19485000  0.51720000  0.94450000  1.0
  O2-  O93  1  0.69485000  0.51720000  0.94450000  1.0
  O2-  O94  1  0.08865000  0.41580000  0.05550000  1.0
  O2-  O95  1  0.58865000  0.41580000  0.05550000  1.0
  O2-  O96  1  0.16135000  0.98280000  0.34310000  1.0
  O2-  O97  1  0.66135000  0.98280000  0.34310000  1.0
  O2-  O98  1  0.05515000  0.08420000  0.65690000  1.0
  O2-  O99  1  0.55515000  0.08420000  0.65690000  1.0
  O2-  O100  1  0.29210000  0.80550000  0.07270000  1.0
  O2-  O101  1  0.79164078  0.80423338  0.07219688  1.0
  O2-  O102  1  0.24140000  0.69450000  0.86030000  1.0
  O2-  O103  1  0.74140000  0.69450000  0.86030000  1.0
  O2-  O104  1  0.45918965  0.40498176  0.13852055  1.0
  O2-  O105  1  0.95790000  0.40690000  0.13970000  1.0
  O2-  O106  1  0.00860000  0.09310000  0.92730000  1.0
  O2-  O107  1  0.50623471  0.09305656  0.92601928  1.0
  O2-  O108  1  0.04655000  0.32270000  0.26720000  1.0
  O2-  O109  1  0.54655000  0.32270000  0.26720000  1.0
  O2-  O110  1  0.20345000  0.11030000  0.16580000  1.0
  O2-  O111  1  0.70134073  0.11494989  0.16616172  1.0
  O2-  O112  1  0.34725000  0.38970000  0.73280000  1.0
  O2-  O113  1  0.84966058  0.38996205  0.72951945  1.0
  O2-  O114  1  0.40275000  0.17730000  0.83420000  1.0
  O2-  O115  1  0.90275000  0.17730000  0.83420000  1.0
  O2-  O116  1  0.30515000  0.48280000  0.55550000  1.0
  O2-  O117  1  0.80515000  0.48280000  0.55550000  1.0
  O2-  O118  1  0.41135000  0.58420000  0.44450000  1.0
  O2-  O119  1  0.91135000  0.58420000  0.44450000  1.0
  O2-  O120  1  0.34261992  0.01786800  0.15935542  1.0
  O2-  O121  1  0.84103477  0.01092294  0.15910197  1.0
  O2-  O122  1  0.44485000  0.91580000  0.84310000  1.0
  O2-  O123  1  0.94485000  0.91580000  0.84310000  1.0
  O2-  O124  1  0.20790000  0.19450000  0.42730000  1.0
  O2-  O125  1  0.70790000  0.19450000  0.42730000  1.0
  O2-  O126  1  0.25860000  0.30550000  0.63970000  1.0
  O2-  O127  1  0.75860000  0.30550000  0.63970000  1.0
  O2-  O128  1  0.04210000  0.59310000  0.36030000  1.0
  O2-  O129  1  0.54093940  0.59243460  0.36222743  1.0
  O2-  O130  1  0.49140000  0.90690000  0.57270000  1.0
  O2-  O131  1  0.99140000  0.90690000  0.57270000  1.0
  O2-  O132  1  0.04374456  0.32398270  0.55428132  1.0
  O2-  O133  1  0.54415008  0.32297668  0.55345403  1.0
  O2-  O134  1  0.49140000  0.11030000  0.44450000  1.0
  O2-  O135  1  0.99140000  0.11030000  0.44450000  1.0
  O2-  O136  1  0.20790000  0.38970000  0.15690000  1.0
  O2-  O137  1  0.70790000  0.38970000  0.15690000  1.0
  O2-  O138  1  0.25624584  0.17637643  0.84175364  1.0
  O2-  O139  1  0.75860000  0.17730000  0.84310000  1.0
  O2-  O140  1  0.19889553  0.48000343  0.43033942  1.0
  O2-  O141  1  0.70345000  0.48280000  0.42730000  1.0
  O2-  O142  1  0.04655000  0.58420000  0.63970000  1.0
  O2-  O143  1  0.54655000  0.58420000  0.63970000  1.0
  O2-  O144  1  0.40275000  0.01720000  0.36030000  1.0
  O2-  O145  1  0.90275000  0.01720000  0.36030000  1.0
  O2-  O146  1  0.34840398  0.91425637  0.57573496  1.0
  O2-  O147  1  0.84725000  0.91580000  0.57270000  1.0
  O2-  O148  1  0.44485000  0.19450000  0.26720000  1.0
  O2-  O149  1  0.94485000  0.19450000  0.26720000  1.0
  O2-  O150  1  0.33865000  0.30550000  0.16580000  1.0
  O2-  O151  1  0.83865000  0.30550000  0.16580000  1.0
  O2-  O152  1  0.41135000  0.59310000  0.73280000  1.0
  O2-  O153  1  0.91135000  0.59310000  0.73280000  1.0
  O2-  O154  1  0.30515000  0.90690000  0.83420000  1.0
  O2-  O155  1  0.80390195  0.90679078  0.83470391  1.0
  O2-  O156  1  0.45790000  0.67730000  0.94450000  1.0
  O2-  O157  1  0.95456740  0.67901191  0.94645743  1.0
  O2-  O158  1  0.00860000  0.88970000  0.05550000  1.0
  O2-  O159  1  0.50860000  0.88970000  0.05550000  1.0
  O2-  O160  1  0.29210000  0.61030000  0.34310000  1.0
  O2-  O161  1  0.79210000  0.61030000  0.34310000  1.0
  O2-  O162  1  0.23966918  0.82368286  0.65519538  1.0
  O2-  O163  1  0.74140000  0.82270000  0.65690000  1.0
  O2-  O164  1  0.29655000  0.51720000  0.07270000  1.0
  O2-  O165  1  0.79655000  0.51720000  0.07270000  1.0
  O2-  O166  1  0.45345000  0.41580000  0.86030000  1.0
  O2-  O167  1  0.95068316  0.41566447  0.86429741  1.0
  O2-  O168  1  0.09725000  0.98280000  0.13970000  1.0
  O2-  O169  1  0.59725000  0.98280000  0.13970000  1.0
  O2-  O170  1  0.15236764  0.08018392  0.93128520  1.0
  O2-  O171  1  0.65275000  0.08420000  0.92730000  1.0
  O2-  O172  1  0.05515000  0.80550000  0.23280000  1.0
  O2-  O173  1  0.55596957  0.80435128  0.23429987  1.0
  O2-  O174  1  0.16135000  0.69450000  0.33420000  1.0
  O2-  O175  1  0.66211479  0.69237604  0.33347594  1.0
  O2-  O176  1  0.08728370  0.40641570  0.76789436  1.0
  O2-  O177  1  0.58788198  0.40503129  0.76538465  1.0
  O2-  O178  1  0.19485000  0.09310000  0.66580000  1.0
  O2-  O179  1  0.69485000  0.09310000  0.66580000  1.0
