# generated using pymatgen
data_Li22La12SmTa7O48
_symmetry_space_group_name_H-M   'P 1'
_cell_length_a   11.16930035
_cell_length_b   22.33860070
_cell_length_c   11.16930035
_cell_angle_alpha   70.52877937
_cell_angle_beta   70.52877937
_cell_angle_gamma   109.47122063
_symmetry_Int_Tables_number   1
_chemical_formula_structural   Li22La12SmTa7O48
_chemical_formula_sum   'Li44 La24 Sm2 Ta14 O96'
_cell_volume   2145.29002631
_cell_formula_units_Z   2
loop_
 _symmetry_equiv_pos_site_id
 _symmetry_equiv_pos_as_xyz
  1  'x, y, z'
loop_
 _atom_type_symbol
 _atom_type_oxidation_number
  Li+  1.0
  La3+  3.0
  Sm3+  3.0
  Ta5+  5.0
  O2-  -2.0
loop_
 _atom_site_type_symbol
 _atom_site_label
 _atom_site_symmetry_multiplicity
 _atom_site_fract_x
 _atom_site_fract_y
 _atom_site_fract_z
 _atom_site_occupancy
  Li+  Li0  1  0.48680000  0.54841667  0.40870000  1.0
  Li+  Li1  1  0.48680000  0.04841667  0.40870000  1.0
  Li+  Li2  1  0.26350000  0.46231667  0.01320000  1.0
  Li+  Li3  1  0.26350000  0.96231667  0.01320000  1.0
  Li+  Li4  1  0.10450000  0.30501667  0.48680000  1.0
  Li+  Li5  1  0.10450000  0.80501667  0.48680000  1.0
  Li+  Li6  1  0.09130000  0.66006667  0.23650000  1.0
  Li+  Li7  1  0.09130000  0.16006667  0.23650000  1.0
  Li+  Li8  1  0.32780000  0.21891667  0.90870000  1.0
  Li+  Li9  1  0.32780000  0.71891667  0.90870000  1.0
  Li+  Li10  1  0.89550000  0.52831667  0.51320000  1.0
  Li+  Li11  1  0.89550000  0.02831667  0.51320000  1.0
  Li+  Li12  1  0.27670000  0.50276667  0.73650000  1.0
  Li+  Li13  1  0.27670000  0.00276667  0.73650000  1.0
  Li+  Li14  1  0.51320000  0.55501667  0.89550000  1.0
  Li+  Li15  1  0.51320000  0.05501667  0.89550000  1.0
  Li+  Li16  1  0.67220000  0.30501667  0.23650000  1.0
  Li+  Li17  1  0.67220000  0.80501667  0.23650000  1.0
  Li+  Li18  1  0.69240000  0.60906667  0.05760000  1.0
  Li+  Li19  1  0.69240000  0.10906667  0.05760000  1.0
  Li+  Li20  1  0.80760000  0.54166667  0.80760000  1.0
  Li+  Li21  1  0.80760000  0.04166667  0.80760000  1.0
  Li+  Li22  1  0.80760000  0.44546667  0.38480000  1.0
  Li+  Li23  1  0.80760000  0.94546667  0.38480000  1.0
  Li+  Li24  1  0.94240000  0.35906667  0.30760000  1.0
  Li+  Li25  1  0.94240000  0.85906667  0.30760000  1.0
  Li+  Li26  1  0.75000000  0.38786667  0.94240000  1.0
  Li+  Li27  1  0.75000000  0.88786667  0.94240000  1.0
  Li+  Li28  1  0.25000000  0.22916667  0.12500000  1.0
  Li+  Li29  1  0.25000000  0.72916667  0.12500000  1.0
  Li+  Li30  1  0.87500000  0.47916667  0.75000000  1.0
  Li+  Li31  1  0.87500000  0.97916667  0.75000000  1.0
  Li+  Li32  1  0.12500000  0.29166667  0.62500000  1.0
  Li+  Li33  1  0.12500000  0.79166667  0.62500000  1.0
  Li+  Li34  1  0.37500000  0.54166667  0.87500000  1.0
  Li+  Li35  1  0.37500000  0.04166667  0.87500000  1.0
  Li+  Li36  1  0.75000000  0.60416667  0.87500000  1.0
  Li+  Li37  1  0.75000000  0.10416667  0.87500000  1.0
  Li+  Li38  1  0.25000000  0.47916667  0.62500000  1.0
  Li+  Li39  1  0.25000000  0.97916667  0.62500000  1.0
  Li+  Li40  1  0.37500000  0.22916667  0.75000000  1.0
  Li+  Li41  1  0.37500000  0.72916667  0.75000000  1.0
  Li+  Li42  1  0.12500000  0.35416667  0.25000000  1.0
  Li+  Li43  1  0.12500000  0.85416667  0.25000000  1.0
  La3+  La44  1  0.37500000  0.29166667  0.37500000  1.0
  La3+  La45  1  0.37500000  0.79166667  0.37500000  1.0
  La3+  La46  1  0.12500000  0.54166667  0.12500000  1.0
  La3+  La47  1  0.12500000  0.04166667  0.12500000  1.0
  La3+  La48  1  0.25000000  0.60416667  0.37500000  1.0
  La3+  La49  1  0.25000000  0.10416667  0.37500000  1.0
  La3+  La50  1  0.75000000  0.47916667  0.12500000  1.0
  La3+  La51  1  0.75000000  0.97916667  0.12500000  1.0
  La3+  La52  1  0.37500000  0.47916667  0.25000000  1.0
  La3+  La53  1  0.37500000  0.97916667  0.25000000  1.0
  La3+  La54  1  0.12500000  0.60416667  0.75000000  1.0
  La3+  La55  1  0.12500000  0.10416667  0.75000000  1.0
  La3+  La56  1  0.62500000  0.54166667  0.62500000  1.0
  La3+  La57  1  0.62500000  0.04166667  0.62500000  1.0
  La3+  La58  1  0.87500000  0.29166667  0.87500000  1.0
  La3+  La59  1  0.87500000  0.79166667  0.87500000  1.0
  La3+  La60  1  0.75000000  0.22916667  0.62500000  1.0
  La3+  La61  1  0.75000000  0.72916667  0.62500000  1.0
  La3+  La62  1  0.25000000  0.35416667  0.87500000  1.0
  La3+  La63  1  0.25000000  0.85416667  0.87500000  1.0
  La3+  La64  1  0.62500000  0.35416667  0.75000000  1.0
  La3+  La65  1  0.62500000  0.85416667  0.75000000  1.0
  La3+  La66  1  0.87500000  0.22916667  0.25000000  1.0
  La3+  La67  1  0.87500000  0.72916667  0.25000000  1.0
  Sm3+  Sm68  1  0.00000000  0.41666667  0.00000000  1.0
  Sm3+  Sm69  1  0.00000000  0.91666667  0.00000000  1.0
  Ta5+  Ta70  1  0.00000000  0.66666667  0.50000000  1.0
  Ta5+  Ta71  1  0.00000000  0.16666667  0.50000000  1.0
  Ta5+  Ta72  1  0.50000000  0.41666667  0.50000000  1.0
  Ta5+  Ta73  1  0.50000000  0.91666667  0.50000000  1.0
  Ta5+  Ta74  1  0.50000000  0.66666667  0.00000000  1.0
  Ta5+  Ta75  1  0.50000000  0.16666667  0.00000000  1.0
  Ta5+  Ta76  1  0.50000000  0.66666667  0.50000000  1.0
  Ta5+  Ta77  1  0.50000000  0.16666667  0.50000000  1.0
  Ta5+  Ta78  1  0.00000000  0.41666667  0.50000000  1.0
  Ta5+  Ta79  1  0.00000000  0.91666667  0.50000000  1.0
  Ta5+  Ta80  1  0.50000000  0.41666667  0.00000000  1.0
  Ta5+  Ta81  1  0.50000000  0.91666667  0.00000000  1.0
  Ta5+  Ta82  1  0.00000000  0.66666667  0.00000000  1.0
  Ta5+  Ta83  1  0.00000000  0.16666667  0.00000000  1.0
  O2-  O84  1  0.48280000  0.21321667  0.32270000  1.0
  O2-  O85  1  0.48280000  0.71321667  0.32270000  1.0
  O2-  O86  1  0.58420000  0.37011667  0.11030000  1.0
  O2-  O87  1  0.58420000  0.87011667  0.11030000  1.0
  O2-  O88  1  0.01720000  0.51391667  0.38970000  1.0
  O2-  O89  1  0.01720000  0.01391667  0.38970000  1.0
  O2-  O90  1  0.91580000  0.56941667  0.17730000  1.0
  O2-  O91  1  0.91580000  0.06941667  0.17730000  1.0
  O2-  O92  1  0.19450000  0.47181667  0.48280000  1.0
  O2-  O93  1  0.19450000  0.97181667  0.48280000  1.0
  O2-  O94  1  0.30550000  0.57801667  0.58420000  1.0
  O2-  O95  1  0.30550000  0.07801667  0.58420000  1.0
  O2-  O96  1  0.59310000  0.50531667  0.01720000  1.0
  O2-  O97  1  0.59310000  0.00531667  0.01720000  1.0
  O2-  O98  1  0.90690000  0.61151667  0.91580000  1.0
  O2-  O99  1  0.90690000  0.11151667  0.91580000  1.0
  O2-  O100  1  0.32270000  0.37456667  0.19450000  1.0
  O2-  O101  1  0.32270000  0.87456667  0.19450000  1.0
  O2-  O102  1  0.11030000  0.42526667  0.30550000  1.0
  O2-  O103  1  0.11030000  0.92526667  0.30550000  1.0
  O2-  O104  1  0.38970000  0.20876667  0.59310000  1.0
  O2-  O105  1  0.38970000  0.70876667  0.59310000  1.0
  O2-  O106  1  0.17730000  0.65806667  0.90690000  1.0
  O2-  O107  1  0.17730000  0.15806667  0.90690000  1.0
  O2-  O108  1  0.51720000  0.62011667  0.67730000  1.0
  O2-  O109  1  0.51720000  0.12011667  0.67730000  1.0
  O2-  O110  1  0.41580000  0.46321667  0.88970000  1.0
  O2-  O111  1  0.41580000  0.96321667  0.88970000  1.0
  O2-  O112  1  0.98280000  0.31941667  0.61030000  1.0
  O2-  O113  1  0.98280000  0.81941667  0.61030000  1.0
  O2-  O114  1  0.08420000  0.26391667  0.82270000  1.0
  O2-  O115  1  0.08420000  0.76391667  0.82270000  1.0
  O2-  O116  1  0.80550000  0.36151667  0.51720000  1.0
  O2-  O117  1  0.80550000  0.86151667  0.51720000  1.0
  O2-  O118  1  0.69450000  0.25531667  0.41580000  1.0
  O2-  O119  1  0.69450000  0.75531667  0.41580000  1.0
  O2-  O120  1  0.40690000  0.32801667  0.98280000  1.0
  O2-  O121  1  0.40690000  0.82801667  0.98280000  1.0
  O2-  O122  1  0.09310000  0.22181667  0.08420000  1.0
  O2-  O123  1  0.09310000  0.72181667  0.08420000  1.0
  O2-  O124  1  0.67730000  0.45876667  0.80550000  1.0
  O2-  O125  1  0.67730000  0.95876667  0.80550000  1.0
  O2-  O126  1  0.88970000  0.40806667  0.69450000  1.0
  O2-  O127  1  0.88970000  0.90806667  0.69450000  1.0
  O2-  O128  1  0.61030000  0.62456667  0.40690000  1.0
  O2-  O129  1  0.61030000  0.12456667  0.40690000  1.0
  O2-  O130  1  0.82270000  0.17526667  0.09310000  1.0
  O2-  O131  1  0.82270000  0.67526667  0.09310000  1.0
  O2-  O132  1  0.80550000  0.62456667  0.67730000  1.0
  O2-  O133  1  0.80550000  0.12456667  0.67730000  1.0
  O2-  O134  1  0.69450000  0.17526667  0.88970000  1.0
  O2-  O135  1  0.69450000  0.67526667  0.88970000  1.0
  O2-  O136  1  0.40690000  0.45876667  0.61030000  1.0
  O2-  O137  1  0.40690000  0.95876667  0.61030000  1.0
  O2-  O138  1  0.09310000  0.40806667  0.82270000  1.0
  O2-  O139  1  0.09310000  0.90806667  0.82270000  1.0
  O2-  O140  1  0.67730000  0.46321667  0.51720000  1.0
  O2-  O141  1  0.67730000  0.96321667  0.51720000  1.0
  O2-  O142  1  0.88970000  0.62011667  0.41580000  1.0
  O2-  O143  1  0.88970000  0.12011667  0.41580000  1.0
  O2-  O144  1  0.61030000  0.26391667  0.98280000  1.0
  O2-  O145  1  0.61030000  0.76391667  0.98280000  1.0
  O2-  O146  1  0.82270000  0.31941667  0.08420000  1.0
  O2-  O147  1  0.82270000  0.81941667  0.08420000  1.0
  O2-  O148  1  0.51720000  0.22181667  0.80550000  1.0
  O2-  O149  1  0.51720000  0.72181667  0.80550000  1.0
  O2-  O150  1  0.41580000  0.32801667  0.69450000  1.0
  O2-  O151  1  0.41580000  0.82801667  0.69450000  1.0
  O2-  O152  1  0.98280000  0.25531667  0.40690000  1.0
  O2-  O153  1  0.98280000  0.75531667  0.40690000  1.0
  O2-  O154  1  0.08420000  0.36151667  0.09310000  1.0
  O2-  O155  1  0.08420000  0.86151667  0.09310000  1.0
  O2-  O156  1  0.19450000  0.20876667  0.32270000  1.0
  O2-  O157  1  0.19450000  0.70876667  0.32270000  1.0
  O2-  O158  1  0.30550000  0.65806667  0.11030000  1.0
  O2-  O159  1  0.30550000  0.15806667  0.11030000  1.0
  O2-  O160  1  0.59310000  0.37456667  0.38970000  1.0
  O2-  O161  1  0.59310000  0.87456667  0.38970000  1.0
  O2-  O162  1  0.90690000  0.42526667  0.17730000  1.0
  O2-  O163  1  0.90690000  0.92526667  0.17730000  1.0
  O2-  O164  1  0.32270000  0.37011667  0.48280000  1.0
  O2-  O165  1  0.32270000  0.87011667  0.48280000  1.0
  O2-  O166  1  0.11030000  0.21321667  0.58420000  1.0
  O2-  O167  1  0.11030000  0.71321667  0.58420000  1.0
  O2-  O168  1  0.38970000  0.56941667  0.01720000  1.0
  O2-  O169  1  0.38970000  0.06941667  0.01720000  1.0
  O2-  O170  1  0.17730000  0.51391667  0.91580000  1.0
  O2-  O171  1  0.17730000  0.01391667  0.91580000  1.0
  O2-  O172  1  0.48280000  0.61151667  0.19450000  1.0
  O2-  O173  1  0.48280000  0.11151667  0.19450000  1.0
  O2-  O174  1  0.58420000  0.50531667  0.30550000  1.0
  O2-  O175  1  0.58420000  0.00531667  0.30550000  1.0
  O2-  O176  1  0.01720000  0.57801667  0.59310000  1.0
  O2-  O177  1  0.01720000  0.07801667  0.59310000  1.0
  O2-  O178  1  0.91580000  0.47181667  0.90690000  1.0
  O2-  O179  1  0.91580000  0.97181667  0.90690000  1.0
