# generated using pymatgen
data_Li22La12SmTa7O48
_symmetry_space_group_name_H-M   'P 1'
_cell_length_a   22.20593058
_cell_length_b   11.10296529
_cell_length_c   11.10296529
_cell_angle_alpha   109.47122063
_cell_angle_beta   109.47122063
_cell_angle_gamma   109.47122063
_symmetry_Int_Tables_number   1
_chemical_formula_structural   Li22La12SmTa7O48
_chemical_formula_sum   'Li44 La24 Sm2 Ta14 O96'
_cell_volume   2107.29361551
_cell_formula_units_Z   2
loop_
 _symmetry_equiv_pos_site_id
 _symmetry_equiv_pos_as_xyz
  1  'x, y, z'
loop_
 _atom_type_symbol
 _atom_type_oxidation_number
  Li+  1.0
  La3+  3.0
  Sm3+  3.0
  Ta5+  5.0
  O2-  -2.0
loop_
 _atom_site_type_symbol
 _atom_site_label
 _atom_site_symmetry_multiplicity
 _atom_site_fract_x
 _atom_site_fract_y
 _atom_site_fract_z
 _atom_site_occupancy
  Li+  Li0  1  0.11825000  0.51320000  0.40870000  1.0
  Li+  Li0  1  0.61825000  0.51320000  0.40870000  1.0
  Li+  Li1  1  0.20435000  0.73650000  0.01320000  1.0
  Li+  Li1  1  0.70435000  0.73650000  0.01320000  1.0
  Li+  Li2  1  0.36165000  0.89550000  0.48680000  1.0
  Li+  Li2  1  0.86165000  0.89550000  0.48680000  1.0
  Li+  Li3  1  0.00660000  0.90870000  0.23650000  1.0
  Li+  Li3  1  0.50660000  0.90870000  0.23650000  1.0
  Li+  Li4  1  0.44775000  0.67220000  0.90870000  1.0
  Li+  Li4  1  0.94775000  0.67220000  0.90870000  1.0
  Li+  Li5  1  0.13835000  0.10450000  0.51320000  1.0
  Li+  Li5  1  0.63835000  0.10450000  0.51320000  1.0
  Li+  Li6  1  0.16390000  0.72330000  0.73650000  1.0
  Li+  Li6  1  0.66390000  0.72330000  0.73650000  1.0
  Li+  Li7  1  0.11165000  0.48680000  0.89550000  1.0
  Li+  Li7  1  0.61165000  0.48680000  0.89550000  1.0
  Li+  Li8  1  0.36165000  0.32780000  0.23650000  1.0
  Li+  Li8  1  0.86165000  0.32780000  0.23650000  1.0
  Li+  Li9  1  0.05760000  0.30760000  0.05760000  1.0
  Li+  Li9  1  0.55760000  0.30760000  0.05760000  1.0
  Li+  Li10  1  0.12500000  0.19240000  0.80760000  1.0
  Li+  Li10  1  0.62500000  0.19240000  0.80760000  1.0
  Li+  Li11  1  0.22120000  0.19240000  0.38480000  1.0
  Li+  Li11  1  0.72120000  0.19240000  0.38480000  1.0
  Li+  Li12  1  0.30760000  0.05760000  0.30760000  1.0
  Li+  Li12  1  0.80760000  0.05760000  0.30760000  1.0
  Li+  Li13  1  0.27880000  0.25000000  0.94240000  1.0
  Li+  Li13  1  0.77880000  0.25000000  0.94240000  1.0
  Li+  Li14  1  0.43750000  0.75000000  0.12500000  1.0
  Li+  Li14  1  0.93750000  0.75000000  0.12500000  1.0
  Li+  Li15  1  0.18750000  0.12500000  0.75000000  1.0
  Li+  Li15  1  0.68750000  0.12500000  0.75000000  1.0
  Li+  Li16  1  0.37500000  0.87500000  0.62500000  1.0
  Li+  Li16  1  0.87500000  0.87500000  0.62500000  1.0
  Li+  Li17  1  0.12500000  0.62500000  0.87500000  1.0
  Li+  Li17  1  0.62500000  0.62500000  0.87500000  1.0
  Li+  Li18  1  0.06250000  0.25000000  0.87500000  1.0
  Li+  Li18  1  0.56250000  0.25000000  0.87500000  1.0
  Li+  Li19  1  0.18750000  0.75000000  0.62500000  1.0
  Li+  Li19  1  0.68750000  0.75000000  0.62500000  1.0
  Li+  Li20  1  0.43750000  0.62500000  0.75000000  1.0
  Li+  Li20  1  0.93750000  0.62500000  0.75000000  1.0
  Li+  Li21  1  0.31250000  0.87500000  0.25000000  1.0
  Li+  Li21  1  0.81250000  0.87500000  0.25000000  1.0
  La3+  La1  1  0.37500000  0.62500000  0.37500000  1.0
  La3+  La1  1  0.87500000  0.62500000  0.37500000  1.0
  La3+  La1  1  0.12500000  0.87500000  0.12500000  1.0
  La3+  La1  1  0.62500000  0.87500000  0.12500000  1.0
  La3+  La1  1  0.06250000  0.75000000  0.37500000  1.0
  La3+  La1  1  0.56250000  0.75000000  0.37500000  1.0
  La3+  La1  1  0.18750000  0.25000000  0.12500000  1.0
  La3+  La1  1  0.68750000  0.25000000  0.12500000  1.0
  La3+  La1  1  0.18750000  0.62500000  0.25000000  1.0
  La3+  La1  1  0.68750000  0.62500000  0.25000000  1.0
  La3+  La1  1  0.06250000  0.87500000  0.75000000  1.0
  La3+  La1  1  0.56250000  0.87500000  0.75000000  1.0
  La3+  La1  1  0.12500000  0.37500000  0.62500000  1.0
  La3+  La1  1  0.62500000  0.37500000  0.62500000  1.0
  La3+  La1  1  0.37500000  0.12500000  0.87500000  1.0
  La3+  La1  1  0.87500000  0.12500000  0.87500000  1.0
  La3+  La1  1  0.43750000  0.25000000  0.62500000  1.0
  La3+  La1  1  0.93750000  0.25000000  0.62500000  1.0
  La3+  La1  1  0.31250000  0.75000000  0.87500000  1.0
  La3+  La1  1  0.81250000  0.75000000  0.87500000  1.0
  La3+  La1  1  0.31250000  0.37500000  0.75000000  1.0
  La3+  La1  1  0.81250000  0.37500000  0.75000000  1.0
  La3+  La1  1  0.43750000  0.12500000  0.25000000  1.0
  La3+  La1  1  0.93750000  0.12500000  0.25000000  1.0
  Sm3+  Sm34  1  0.25000000  0.00000000  0.00000000  1.0
  Sm3+  Sm34  1  0.75000000  0.00000000  0.00000000  1.0
  Ta5+  Ta35  1  0.00000000  0.00000000  0.50000000  1.0
  Ta5+  Ta35  1  0.50000000  0.00000000  0.50000000  1.0
  Ta5+  Ta36  1  0.25000000  0.50000000  0.50000000  1.0
  Ta5+  Ta36  1  0.75000000  0.50000000  0.50000000  1.0
  Ta5+  Ta37  1  0.00000000  0.50000000  0.00000000  1.0
  Ta5+  Ta37  1  0.50000000  0.50000000  0.00000000  1.0
  Ta5+  Ta38  1  0.00000000  0.50000000  0.50000000  1.0
  Ta5+  Ta38  1  0.50000000  0.50000000  0.50000000  1.0
  Ta5+  Ta39  1  0.25000000  0.00000000  0.50000000  1.0
  Ta5+  Ta39  1  0.75000000  0.00000000  0.50000000  1.0
  Ta5+  Ta40  1  0.25000000  0.50000000  0.00000000  1.0
  Ta5+  Ta40  1  0.75000000  0.50000000  0.00000000  1.0
  Ta5+  Ta41  1  0.00000000  0.00000000  0.00000000  1.0
  Ta5+  Ta41  1  0.50000000  0.00000000  0.00000000  1.0
  O2-  O1  1  0.45345000  0.51720000  0.32270000  1.0
  O2-  O1  1  0.95345000  0.51720000  0.32270000  1.0
  O2-  O1  1  0.29655000  0.41580000  0.11030000  1.0
  O2-  O1  1  0.79655000  0.41580000  0.11030000  1.0
  O2-  O1  1  0.15275000  0.98280000  0.38970000  1.0
  O2-  O1  1  0.65275000  0.98280000  0.38970000  1.0
  O2-  O1  1  0.09725000  0.08420000  0.17730000  1.0
  O2-  O1  1  0.59725000  0.08420000  0.17730000  1.0
  O2-  O1  1  0.19485000  0.80550000  0.48280000  1.0
  O2-  O1  1  0.69485000  0.80550000  0.48280000  1.0
  O2-  O1  1  0.08865000  0.69450000  0.58420000  1.0
  O2-  O1  1  0.58865000  0.69450000  0.58420000  1.0
  O2-  O1  1  0.16135000  0.40690000  0.01720000  1.0
  O2-  O1  1  0.66135000  0.40690000  0.01720000  1.0
  O2-  O1  1  0.05515000  0.09310000  0.91580000  1.0
  O2-  O1  1  0.55515000  0.09310000  0.91580000  1.0
  O2-  O1  1  0.29210000  0.67730000  0.19450000  1.0
  O2-  O1  1  0.79210000  0.67730000  0.19450000  1.0
  O2-  O1  1  0.24140000  0.88970000  0.30550000  1.0
  O2-  O1  1  0.74140000  0.88970000  0.30550000  1.0
  O2-  O1  1  0.45790000  0.61030000  0.59310000  1.0
  O2-  O1  1  0.95790000  0.61030000  0.59310000  1.0
  O2-  O1  1  0.00860000  0.82270000  0.90690000  1.0
  O2-  O1  1  0.50860000  0.82270000  0.90690000  1.0
  O2-  O1  1  0.04655000  0.48280000  0.67730000  1.0
  O2-  O1  1  0.54655000  0.48280000  0.67730000  1.0
  O2-  O1  1  0.20345000  0.58420000  0.88970000  1.0
  O2-  O1  1  0.70345000  0.58420000  0.88970000  1.0
  O2-  O1  1  0.34725000  0.01720000  0.61030000  1.0
  O2-  O1  1  0.84725000  0.01720000  0.61030000  1.0
  O2-  O1  1  0.40275000  0.91580000  0.82270000  1.0
  O2-  O1  1  0.90275000  0.91580000  0.82270000  1.0
  O2-  O1  1  0.30515000  0.19450000  0.51720000  1.0
  O2-  O1  1  0.80515000  0.19450000  0.51720000  1.0
  O2-  O1  1  0.41135000  0.30550000  0.41580000  1.0
  O2-  O1  1  0.91135000  0.30550000  0.41580000  1.0
  O2-  O1  1  0.33865000  0.59310000  0.98280000  1.0
  O2-  O1  1  0.83865000  0.59310000  0.98280000  1.0
  O2-  O1  1  0.44485000  0.90690000  0.08420000  1.0
  O2-  O1  1  0.94485000  0.90690000  0.08420000  1.0
  O2-  O1  1  0.20790000  0.32270000  0.80550000  1.0
  O2-  O1  1  0.70790000  0.32270000  0.80550000  1.0
  O2-  O1  1  0.25860000  0.11030000  0.69450000  1.0
  O2-  O1  1  0.75860000  0.11030000  0.69450000  1.0
  O2-  O1  1  0.04210000  0.38970000  0.40690000  1.0
  O2-  O1  1  0.54210000  0.38970000  0.40690000  1.0
  O2-  O1  1  0.49140000  0.17730000  0.09310000  1.0
  O2-  O1  1  0.99140000  0.17730000  0.09310000  1.0
  O2-  O1  1  0.04210000  0.19450000  0.67730000  1.0
  O2-  O1  1  0.54210000  0.19450000  0.67730000  1.0
  O2-  O1  1  0.49140000  0.30550000  0.88970000  1.0
  O2-  O1  1  0.99140000  0.30550000  0.88970000  1.0
  O2-  O1  1  0.20790000  0.59310000  0.61030000  1.0
  O2-  O1  1  0.70790000  0.59310000  0.61030000  1.0
  O2-  O1  1  0.25860000  0.90690000  0.82270000  1.0
  O2-  O1  1  0.75860000  0.90690000  0.82270000  1.0
  O2-  O1  1  0.20345000  0.32270000  0.51720000  1.0
  O2-  O1  1  0.70345000  0.32270000  0.51720000  1.0
  O2-  O1  1  0.04655000  0.11030000  0.41580000  1.0
  O2-  O1  1  0.54655000  0.11030000  0.41580000  1.0
  O2-  O1  1  0.40275000  0.38970000  0.98280000  1.0
  O2-  O1  1  0.90275000  0.38970000  0.98280000  1.0
  O2-  O1  1  0.34725000  0.17730000  0.08420000  1.0
  O2-  O1  1  0.84725000  0.17730000  0.08420000  1.0
  O2-  O1  1  0.44485000  0.48280000  0.80550000  1.0
  O2-  O1  1  0.94485000  0.48280000  0.80550000  1.0
  O2-  O1  1  0.33865000  0.58420000  0.69450000  1.0
  O2-  O1  1  0.83865000  0.58420000  0.69450000  1.0
  O2-  O1  1  0.41135000  0.01720000  0.40690000  1.0
  O2-  O1  1  0.91135000  0.01720000  0.40690000  1.0
  O2-  O1  1  0.30515000  0.91580000  0.09310000  1.0
  O2-  O1  1  0.80515000  0.91580000  0.09310000  1.0
  O2-  O1  1  0.45790000  0.80550000  0.32270000  1.0
  O2-  O1  1  0.95790000  0.80550000  0.32270000  1.0
  O2-  O1  1  0.00860000  0.69450000  0.11030000  1.0
  O2-  O1  1  0.50860000  0.69450000  0.11030000  1.0
  O2-  O1  1  0.29210000  0.40690000  0.38970000  1.0
  O2-  O1  1  0.79210000  0.40690000  0.38970000  1.0
  O2-  O1  1  0.24140000  0.09310000  0.17730000  1.0
  O2-  O1  1  0.74140000  0.09310000  0.17730000  1.0
  O2-  O1  1  0.29655000  0.67730000  0.48280000  1.0
  O2-  O1  1  0.79655000  0.67730000  0.48280000  1.0
  O2-  O1  1  0.45345000  0.88970000  0.58420000  1.0
  O2-  O1  1  0.95345000  0.88970000  0.58420000  1.0
  O2-  O1  1  0.09725000  0.61030000  0.01720000  1.0
  O2-  O1  1  0.59725000  0.61030000  0.01720000  1.0
  O2-  O1  1  0.15275000  0.82270000  0.91580000  1.0
  O2-  O1  1  0.65275000  0.82270000  0.91580000  1.0
  O2-  O1  1  0.05515000  0.51720000  0.19450000  1.0
  O2-  O1  1  0.55515000  0.51720000  0.19450000  1.0
  O2-  O1  1  0.16135000  0.41580000  0.30550000  1.0
  O2-  O1  1  0.66135000  0.41580000  0.30550000  1.0
  O2-  O1  1  0.08865000  0.98280000  0.59310000  1.0
  O2-  O1  1  0.58865000  0.98280000  0.59310000  1.0
  O2-  O1  1  0.19485000  0.08420000  0.90690000  1.0
  O2-  O1  1  0.69485000  0.08420000  0.90690000  1.0
