# generated using pymatgen
data_Li33Mn13In7Cl80
_symmetry_space_group_name_H-M   'P 1'
_cell_length_a   7.40312516
_cell_length_b   37.01562578
_cell_length_c   14.80625031
_cell_angle_alpha   60.00000000
_cell_angle_beta   120.00000000
_cell_angle_gamma   120.00000000
_symmetry_Int_Tables_number   1
_chemical_formula_structural   Li33Mn13In7Cl80
_chemical_formula_sum   'Li33 Mn13 In7 Cl80'
_cell_volume   2868.99820817
_cell_formula_units_Z   1
loop_
 _symmetry_equiv_pos_site_id
 _symmetry_equiv_pos_as_xyz
  1  'x, y, z'
loop_
 _atom_type_symbol
 _atom_type_oxidation_number
  Li+  1.0
  Mn2+  2.0
  In3+  3.0
  Cl-  -1.0
loop_
 _atom_site_type_symbol
 _atom_site_label
 _atom_site_symmetry_multiplicity
 _atom_site_fract_x
 _atom_site_fract_y
 _atom_site_fract_z
 _atom_site_occupancy
  Li+  Li0  1  0.50000000  0.00000000  0.50000000  1.0
  Li+  Li1  1  0.50085824  0.79823442  0.50499476  1.0
  Li+  Li2  1  0.50000000  0.20000000  0.50000000  1.0
  Li+  Li3  1  0.50000000  0.80000000  0.00000000  1.0
  Li+  Li4  1  0.50000000  0.60000000  0.00000000  1.0
  Li+  Li5  1  0.50111486  0.40109704  0.00334719  1.0
  Li+  Li6  1  0.50000000  0.90000000  0.25000000  1.0
  Li+  Li7  1  0.50000000  0.70000000  0.25000000  1.0
  Li+  Li8  1  0.50000000  0.50000000  0.25000000  1.0
  Li+  Li9  1  0.49983695  0.10287516  0.24577289  1.0
  Li+  Li10  1  0.50057450  0.89537394  0.74772435  1.0
  Li+  Li11  1  0.50000000  0.70000000  0.75000000  1.0
  Li+  Li12  1  0.49940048  0.29949477  0.74832241  1.0
  Li+  Li13  1  0.50000000  0.10000000  0.75000000  1.0
  Li+  Li14  1  0.00000000  0.70000000  0.50000000  1.0
  Li+  Li15  1  0.00000000  0.50000000  0.50000000  1.0
  Li+  Li16  1  0.00000000  0.30000000  0.50000000  1.0
  Li+  Li17  1  0.00000000  0.90000000  0.00000000  1.0
  Li+  Li18  1  0.00000000  0.30000000  0.00000000  1.0
  Li+  Li19  1  0.50000000  0.30000000  0.00000000  1.0
  Li+  Li20  1  0.12443660  0.77270504  0.68723345  1.0
  Li+  Li21  1  0.12500000  0.57500000  0.68750000  1.0
  Li+  Li22  1  0.12500000  0.37500000  0.68750000  1.0
  Li+  Li23  1  0.12500000  0.17500000  0.68750000  1.0
  Li+  Li24  1  0.12500000  0.77500000  0.18750000  1.0
  Li+  Li25  1  0.12500000  0.57500000  0.18750000  1.0
  Li+  Li26  1  0.12500000  0.37500000  0.18750000  1.0
  Li+  Li27  1  0.12500000  0.17500000  0.18750000  1.0
  Li+  Li28  1  0.88074272  0.82381212  0.31497002  1.0
  Li+  Li29  1  0.87500000  0.02500000  0.31250000  1.0
  Li+  Li30  1  0.87500000  0.82500000  0.81250000  1.0
  Li+  Li31  1  0.87500000  0.42500000  0.81250000  1.0
  Li+  Li32  1  0.87500000  0.02500000  0.81250000  1.0
  Mn2+  Mn33  1  0.50000000  0.60000000  0.50000000  1.0
  Mn2+  Mn34  1  0.50260332  0.00341046  0.99915130  1.0
  Mn2+  Mn35  1  0.49997730  0.20066452  0.00015596  1.0
  Mn2+  Mn36  1  0.50000000  0.30000000  0.25000000  1.0
  Mn2+  Mn37  1  0.50000000  0.50000000  0.75000000  1.0
  Mn2+  Mn38  1  0.99643593  0.10145002  0.50296053  1.0
  Mn2+  Mn39  1  0.00000000  0.50000000  0.00000000  1.0
  Mn2+  Mn40  1  0.00000000  0.10000000  0.00000000  1.0
  Mn2+  Mn41  1  0.50000000  0.90000000  0.50000000  1.0
  Mn2+  Mn42  1  0.50000000  0.70000000  0.50000000  1.0
  Mn2+  Mn43  1  0.50000000  0.70000000  0.00000000  1.0
  Mn2+  Mn44  1  0.50132595  0.49901297  0.99756982  1.0
  Mn2+  Mn45  1  0.50000000  0.10000000  0.00000000  1.0
  In3+  In46  1  0.50000000  0.40000000  0.50000000  1.0
  In3+  In47  1  0.00000000  0.90000000  0.50000000  1.0
  In3+  In48  1  0.00000000  0.70000000  0.00000000  1.0
  In3+  In49  1  0.50000000  0.50000000  0.50000000  1.0
  In3+  In50  1  0.50000000  0.30000000  0.50000000  1.0
  In3+  In51  1  0.50142129  0.09759106  0.49980446  1.0
  In3+  In52  1  0.50000000  0.90000000  0.00000000  1.0
  Cl-  Cl53  1  0.25478533  0.85869698  0.62303096  1.0
  Cl-  Cl54  1  0.25628000  0.65376800  0.62186000  1.0
  Cl-  Cl55  1  0.25904368  0.45533360  0.62391190  1.0
  Cl-  Cl56  1  0.25628000  0.25376800  0.62186000  1.0
  Cl-  Cl57  1  0.25628000  0.05376800  0.62186000  1.0
  Cl-  Cl58  1  0.25628000  0.85376800  0.12186000  1.0
  Cl-  Cl59  1  0.25628000  0.65376800  0.12186000  1.0
  Cl-  Cl60  1  0.25628000  0.45376800  0.12186000  1.0
  Cl-  Cl61  1  0.25628000  0.25376800  0.12186000  1.0
  Cl-  Cl62  1  0.25628000  0.05376800  0.12186000  1.0
  Cl-  Cl63  1  0.25628000  0.94874400  0.38442000  1.0
  Cl-  Cl64  1  0.25514702  0.75186750  0.38219116  1.0
  Cl-  Cl65  1  0.25628000  0.54874400  0.38442000  1.0
  Cl-  Cl66  1  0.25255083  0.34984922  0.38431565  1.0
  Cl-  Cl67  1  0.25764755  0.14774999  0.38426603  1.0
  Cl-  Cl68  1  0.25628000  0.94874400  0.88442000  1.0
  Cl-  Cl69  1  0.25981172  0.74623570  0.88461484  1.0
  Cl-  Cl70  1  0.25628000  0.54874400  0.88442000  1.0
  Cl-  Cl71  1  0.25628000  0.34874400  0.88442000  1.0
  Cl-  Cl72  1  0.25628000  0.14874400  0.88442000  1.0
  Cl-  Cl73  1  0.73116000  0.94874400  0.62186000  1.0
  Cl-  Cl74  1  0.73137117  0.74778999  0.62195507  1.0
  Cl-  Cl75  1  0.73116000  0.54874400  0.62186000  1.0
  Cl-  Cl76  1  0.73116000  0.34874400  0.62186000  1.0
  Cl-  Cl77  1  0.73116000  0.14874400  0.62186000  1.0
  Cl-  Cl78  1  0.73161803  0.94876794  0.12058412  1.0
  Cl-  Cl79  1  0.73116000  0.74874400  0.12186000  1.0
  Cl-  Cl80  1  0.73143404  0.54631216  0.11982456  1.0
  Cl-  Cl81  1  0.73116000  0.34874400  0.12186000  1.0
  Cl-  Cl82  1  0.73116000  0.14874400  0.12186000  1.0
  Cl-  Cl83  1  0.25628000  0.94874400  0.62186000  1.0
  Cl-  Cl84  1  0.25628000  0.74874400  0.62186000  1.0
  Cl-  Cl85  1  0.25628000  0.54874400  0.62186000  1.0
  Cl-  Cl86  1  0.25628000  0.34874400  0.62186000  1.0
  Cl-  Cl87  1  0.25628000  0.14874400  0.62186000  1.0
  Cl-  Cl88  1  0.25628000  0.94874400  0.12186000  1.0
  Cl-  Cl89  1  0.25588907  0.74928955  0.11977134  1.0
  Cl-  Cl90  1  0.25918224  0.54778892  0.12110838  1.0
  Cl-  Cl91  1  0.25628000  0.34874400  0.12186000  1.0
  Cl-  Cl92  1  0.25628000  0.14874400  0.12186000  1.0
  Cl-  Cl93  1  0.74112659  0.94511633  0.37916201  1.0
  Cl-  Cl94  1  0.74057417  0.74189489  0.37390073  1.0
  Cl-  Cl95  1  0.74372000  0.54623200  0.37814000  1.0
  Cl-  Cl96  1  0.74372000  0.34623200  0.37814000  1.0
  Cl-  Cl97  1  0.74372000  0.14623200  0.37814000  1.0
  Cl-  Cl98  1  0.74372000  0.94623200  0.87814000  1.0
  Cl-  Cl99  1  0.74372000  0.74623200  0.87814000  1.0
  Cl-  Cl100  1  0.74372000  0.54623200  0.87814000  1.0
  Cl-  Cl101  1  0.74353588  0.34490007  0.88057689  1.0
  Cl-  Cl102  1  0.74372000  0.14623200  0.87814000  1.0
  Cl-  Cl103  1  0.74372000  0.85125600  0.61558000  1.0
  Cl-  Cl104  1  0.74135122  0.65254273  0.61549273  1.0
  Cl-  Cl105  1  0.74372000  0.45125600  0.61558000  1.0
  Cl-  Cl106  1  0.74515404  0.25213104  0.61420364  1.0
  Cl-  Cl107  1  0.74372000  0.05125600  0.61558000  1.0
  Cl-  Cl108  1  0.74372000  0.85125600  0.11558000  1.0
  Cl-  Cl109  1  0.74372000  0.65125600  0.11558000  1.0
  Cl-  Cl110  1  0.74372000  0.45125600  0.11558000  1.0
  Cl-  Cl111  1  0.74372000  0.25125600  0.11558000  1.0
  Cl-  Cl112  1  0.74372000  0.05125600  0.11558000  1.0
  Cl-  Cl113  1  0.27321806  0.85495395  0.37694183  1.0
  Cl-  Cl114  1  0.26884000  0.65125600  0.37814000  1.0
  Cl-  Cl115  1  0.26884000  0.45125600  0.37814000  1.0
  Cl-  Cl116  1  0.26677136  0.25029085  0.37840505  1.0
  Cl-  Cl117  1  0.26884000  0.05125600  0.37814000  1.0
  Cl-  Cl118  1  0.26884000  0.85125600  0.87814000  1.0
  Cl-  Cl119  1  0.26884000  0.65125600  0.87814000  1.0
  Cl-  Cl120  1  0.26884000  0.45125600  0.87814000  1.0
  Cl-  Cl121  1  0.26884000  0.25125600  0.87814000  1.0
  Cl-  Cl122  1  0.26884000  0.05125600  0.87814000  1.0
  Cl-  Cl123  1  0.74372000  0.85125600  0.37814000  1.0
  Cl-  Cl124  1  0.74372000  0.65125600  0.37814000  1.0
  Cl-  Cl125  1  0.74194134  0.45218950  0.37546372  1.0
  Cl-  Cl126  1  0.74372000  0.25125600  0.37814000  1.0
  Cl-  Cl127  1  0.74372000  0.05125600  0.37814000  1.0
  Cl-  Cl128  1  0.74495102  0.85243358  0.87915342  1.0
  Cl-  Cl129  1  0.74372000  0.65125600  0.87814000  1.0
  Cl-  Cl130  1  0.74372000  0.45125600  0.87814000  1.0
  Cl-  Cl131  1  0.74372000  0.25125600  0.87814000  1.0
  Cl-  Cl132  1  0.74503226  0.05200842  0.87637983  1.0
