# generated using pymatgen
data_Li33Mn13In7Cl80
_symmetry_space_group_name_H-M   'P 1'
_cell_length_a   14.79033898
_cell_length_b   7.39516950
_cell_length_c   36.97584746
_cell_angle_alpha   120.00000000
_cell_angle_beta   120.00000000
_cell_angle_gamma   60.00000000
_symmetry_Int_Tables_number   1
_chemical_formula_structural   Li33Mn13In7Cl80
_chemical_formula_sum   'Li33 Mn13 In7 Cl80'
_cell_volume   2859.75876015
_cell_formula_units_Z   1
loop_
 _symmetry_equiv_pos_site_id
 _symmetry_equiv_pos_as_xyz
  1  'x, y, z'
loop_
 _atom_type_symbol
 _atom_type_oxidation_number
  Li+  1.0
  Mn2+  2.0
  In3+  3.0
  Cl-  -1.0
loop_
 _atom_site_type_symbol
 _atom_site_label
 _atom_site_symmetry_multiplicity
 _atom_site_fract_x
 _atom_site_fract_y
 _atom_site_fract_z
 _atom_site_occupancy
  Li+  Li0  1  0.75000000  0.16666667  0.00000000  1.0
  Li+  Li1  1  0.75000000  0.16666667  0.20000000  1.0
  Li+  Li2  1  0.75000000  0.16666667  0.80000000  1.0
  Li+  Li3  1  0.25000000  0.16666667  0.20000000  1.0
  Li+  Li4  1  0.25000000  0.16666667  0.40000000  1.0
  Li+  Li5  1  0.25000000  0.16666667  0.60000000  1.0
  Li+  Li6  1  0.50000000  0.16666667  0.10000000  1.0
  Li+  Li7  1  0.50000000  0.16666667  0.30000000  1.0
  Li+  Li8  1  0.50000000  0.16666667  0.50000000  1.0
  Li+  Li9  1  0.50000000  0.16666667  0.90000000  1.0
  Li+  Li10  1  0.00000000  0.16666667  0.10000000  1.0
  Li+  Li11  1  0.00000000  0.16666667  0.30000000  1.0
  Li+  Li12  1  0.00000000  0.16666667  0.70000000  1.0
  Li+  Li13  1  0.00000000  0.16666667  0.90000000  1.0
  Li+  Li14  1  0.75000000  0.66666667  0.30000000  1.0
  Li+  Li15  1  0.75000000  0.66666667  0.50000000  1.0
  Li+  Li16  1  0.75000000  0.66666667  0.70000000  1.0
  Li+  Li17  1  0.25000000  0.66666667  0.10000000  1.0
  Li+  Li18  1  0.25000000  0.66666667  0.70000000  1.0
  Li+  Li19  1  0.25000000  0.16666667  0.70000000  1.0
  Li+  Li20  1  0.93750000  0.54166667  0.22500000  1.0
  Li+  Li21  1  0.93750000  0.54166667  0.42500000  1.0
  Li+  Li22  1  0.93750000  0.54166667  0.62500000  1.0
  Li+  Li23  1  0.93750000  0.54166667  0.82500000  1.0
  Li+  Li24  1  0.43750000  0.54166667  0.22500000  1.0
  Li+  Li25  1  0.43750000  0.54166667  0.42500000  1.0
  Li+  Li26  1  0.43750000  0.54166667  0.62500000  1.0
  Li+  Li27  1  0.43750000  0.54166667  0.82500000  1.0
  Li+  Li28  1  0.56250000  0.79166667  0.17500000  1.0
  Li+  Li29  1  0.56250000  0.79166667  0.97500000  1.0
  Li+  Li30  1  0.06250000  0.79166667  0.17500000  1.0
  Li+  Li31  1  0.06250000  0.79166667  0.57500000  1.0
  Li+  Li32  1  0.06250000  0.79166667  0.97500000  1.0
  Mn2+  Mn33  1  0.75000000  0.16666667  0.40000000  1.0
  Mn2+  Mn34  1  0.25000000  0.16666667  0.00000000  1.0
  Mn2+  Mn35  1  0.25000000  0.16666667  0.80000000  1.0
  Mn2+  Mn36  1  0.50000000  0.16666667  0.70000000  1.0
  Mn2+  Mn37  1  0.00000000  0.16666667  0.50000000  1.0
  Mn2+  Mn38  1  0.75000000  0.66666667  0.90000000  1.0
  Mn2+  Mn39  1  0.25000000  0.66666667  0.50000000  1.0
  Mn2+  Mn40  1  0.25000000  0.66666667  0.90000000  1.0
  Mn2+  Mn41  1  0.75000000  0.16666667  0.10000000  1.0
  Mn2+  Mn42  1  0.75000000  0.16666667  0.30000000  1.0
  Mn2+  Mn43  1  0.25000000  0.16666667  0.30000000  1.0
  Mn2+  Mn44  1  0.25000000  0.16666667  0.50000000  1.0
  Mn2+  Mn45  1  0.25000000  0.16666667  0.90000000  1.0
  In3+  In46  1  0.75000000  0.16666667  0.60000000  1.0
  In3+  In47  1  0.75000000  0.66666667  0.10000000  1.0
  In3+  In48  1  0.25000000  0.66666667  0.30000000  1.0
  In3+  In49  1  0.75000000  0.16666667  0.50000000  1.0
  In3+  In50  1  0.75000000  0.16666667  0.70000000  1.0
  In3+  In51  1  0.75000000  0.16666667  0.90000000  1.0
  In3+  In52  1  0.25000000  0.16666667  0.10000000  1.0
  Cl-  Cl53  1  0.87186000  0.41038667  0.14623200  1.0
  Cl-  Cl54  1  0.87186000  0.41038667  0.34623200  1.0
  Cl-  Cl55  1  0.87186000  0.41038667  0.54623200  1.0
  Cl-  Cl56  1  0.87186000  0.41038667  0.74623200  1.0
  Cl-  Cl57  1  0.87186000  0.41038667  0.94623200  1.0
  Cl-  Cl58  1  0.37186000  0.41038667  0.14623200  1.0
  Cl-  Cl59  1  0.37186000  0.41038667  0.34623200  1.0
  Cl-  Cl60  1  0.37186000  0.41038667  0.54623200  1.0
  Cl-  Cl61  1  0.37186000  0.41038667  0.74623200  1.0
  Cl-  Cl62  1  0.37186000  0.41038667  0.94623200  1.0
  Cl-  Cl63  1  0.63442000  0.41038667  0.05125600  1.0
  Cl-  Cl64  1  0.63442000  0.41038667  0.25125600  1.0
  Cl-  Cl65  1  0.63442000  0.41038667  0.45125600  1.0
  Cl-  Cl66  1  0.63442000  0.41038667  0.65125600  1.0
  Cl-  Cl67  1  0.63442000  0.41038667  0.85125600  1.0
  Cl-  Cl68  1  0.13442000  0.41038667  0.05125600  1.0
  Cl-  Cl69  1  0.13442000  0.41038667  0.25125600  1.0
  Cl-  Cl70  1  0.13442000  0.41038667  0.45125600  1.0
  Cl-  Cl71  1  0.13442000  0.41038667  0.65125600  1.0
  Cl-  Cl72  1  0.13442000  0.41038667  0.85125600  1.0
  Cl-  Cl73  1  0.87186000  0.93550667  0.05125600  1.0
  Cl-  Cl74  1  0.87186000  0.93550667  0.25125600  1.0
  Cl-  Cl75  1  0.87186000  0.93550667  0.45125600  1.0
  Cl-  Cl76  1  0.87186000  0.93550667  0.65125600  1.0
  Cl-  Cl77  1  0.87186000  0.93550667  0.85125600  1.0
  Cl-  Cl78  1  0.37186000  0.93550667  0.05125600  1.0
  Cl-  Cl79  1  0.37186000  0.93550667  0.25125600  1.0
  Cl-  Cl80  1  0.37186000  0.93550667  0.45125600  1.0
  Cl-  Cl81  1  0.37186000  0.93550667  0.65125600  1.0
  Cl-  Cl82  1  0.37186000  0.93550667  0.85125600  1.0
  Cl-  Cl83  1  0.87186000  0.41038667  0.05125600  1.0
  Cl-  Cl84  1  0.87186000  0.41038667  0.25125600  1.0
  Cl-  Cl85  1  0.87186000  0.41038667  0.45125600  1.0
  Cl-  Cl86  1  0.87186000  0.41038667  0.65125600  1.0
  Cl-  Cl87  1  0.87186000  0.41038667  0.85125600  1.0
  Cl-  Cl88  1  0.37186000  0.41038667  0.05125600  1.0
  Cl-  Cl89  1  0.37186000  0.41038667  0.25125600  1.0
  Cl-  Cl90  1  0.37186000  0.41038667  0.45125600  1.0
  Cl-  Cl91  1  0.37186000  0.41038667  0.65125600  1.0
  Cl-  Cl92  1  0.37186000  0.41038667  0.85125600  1.0
  Cl-  Cl93  1  0.62814000  0.92294667  0.05376800  1.0
  Cl-  Cl94  1  0.62814000  0.92294667  0.25376800  1.0
  Cl-  Cl95  1  0.62814000  0.92294667  0.45376800  1.0
  Cl-  Cl96  1  0.62814000  0.92294667  0.65376800  1.0
  Cl-  Cl97  1  0.62814000  0.92294667  0.85376800  1.0
  Cl-  Cl98  1  0.12814000  0.92294667  0.05376800  1.0
  Cl-  Cl99  1  0.12814000  0.92294667  0.25376800  1.0
  Cl-  Cl100  1  0.12814000  0.92294667  0.45376800  1.0
  Cl-  Cl101  1  0.12814000  0.92294667  0.65376800  1.0
  Cl-  Cl102  1  0.12814000  0.92294667  0.85376800  1.0
  Cl-  Cl103  1  0.86558000  0.92294667  0.14874400  1.0
  Cl-  Cl104  1  0.86558000  0.92294667  0.34874400  1.0
  Cl-  Cl105  1  0.86558000  0.92294667  0.54874400  1.0
  Cl-  Cl106  1  0.86558000  0.92294667  0.74874400  1.0
  Cl-  Cl107  1  0.86558000  0.92294667  0.94874400  1.0
  Cl-  Cl108  1  0.36558000  0.92294667  0.14874400  1.0
  Cl-  Cl109  1  0.36558000  0.92294667  0.34874400  1.0
  Cl-  Cl110  1  0.36558000  0.92294667  0.54874400  1.0
  Cl-  Cl111  1  0.36558000  0.92294667  0.74874400  1.0
  Cl-  Cl112  1  0.36558000  0.92294667  0.94874400  1.0
  Cl-  Cl113  1  0.62814000  0.39782667  0.14874400  1.0
  Cl-  Cl114  1  0.62814000  0.39782667  0.34874400  1.0
  Cl-  Cl115  1  0.62814000  0.39782667  0.54874400  1.0
  Cl-  Cl116  1  0.62814000  0.39782667  0.74874400  1.0
  Cl-  Cl117  1  0.62814000  0.39782667  0.94874400  1.0
  Cl-  Cl118  1  0.12814000  0.39782667  0.14874400  1.0
  Cl-  Cl119  1  0.12814000  0.39782667  0.34874400  1.0
  Cl-  Cl120  1  0.12814000  0.39782667  0.54874400  1.0
  Cl-  Cl121  1  0.12814000  0.39782667  0.74874400  1.0
  Cl-  Cl122  1  0.12814000  0.39782667  0.94874400  1.0
  Cl-  Cl123  1  0.62814000  0.92294667  0.14874400  1.0
  Cl-  Cl124  1  0.62814000  0.92294667  0.34874400  1.0
  Cl-  Cl125  1  0.62814000  0.92294667  0.54874400  1.0
  Cl-  Cl126  1  0.62814000  0.92294667  0.74874400  1.0
  Cl-  Cl127  1  0.62814000  0.92294667  0.94874400  1.0
  Cl-  Cl128  1  0.12814000  0.92294667  0.14874400  1.0
  Cl-  Cl129  1  0.12814000  0.92294667  0.34874400  1.0
  Cl-  Cl130  1  0.12814000  0.92294667  0.54874400  1.0
  Cl-  Cl131  1  0.12814000  0.92294667  0.74874400  1.0
  Cl-  Cl132  1  0.12814000  0.92294667  0.94874400  1.0
