# generated using pymatgen
data_Li33Mn13In7Cl80
_symmetry_space_group_name_H-M   'P 1'
_cell_length_a   7.40312516
_cell_length_b   14.80625031
_cell_length_c   37.01562578
_cell_angle_alpha   60.00000000
_cell_angle_beta   60.00000000
_cell_angle_gamma   60.00000000
_symmetry_Int_Tables_number   1
_chemical_formula_structural   Li33Mn13In7Cl80
_chemical_formula_sum   'Li33 Mn13 In7 Cl80'
_cell_volume   2868.99820817
_cell_formula_units_Z   1
loop_
 _symmetry_equiv_pos_site_id
 _symmetry_equiv_pos_as_xyz
  1  'x, y, z'
loop_
 _atom_type_symbol
 _atom_type_oxidation_number
  Li+  1.0
  Mn2+  2.0
  In3+  3.0
  Cl-  -1.0
loop_
 _atom_site_type_symbol
 _atom_site_label
 _atom_site_symmetry_multiplicity
 _atom_site_fract_x
 _atom_site_fract_y
 _atom_site_fract_z
 _atom_site_occupancy
  Li+  Li0  1  0.50000000  0.25000000  0.00000000  1.0
  Li+  Li1  1  0.50000000  0.25000000  0.20000000  1.0
  Li+  Li2  1  0.50000000  0.25000000  0.80000000  1.0
  Li+  Li3  1  0.50000000  0.75000000  0.20000000  1.0
  Li+  Li4  1  0.50000000  0.75000000  0.40000000  1.0
  Li+  Li5  1  0.50000000  0.75000000  0.60000000  1.0
  Li+  Li6  1  0.50000000  0.50000000  0.10000000  1.0
  Li+  Li7  1  0.50000000  0.50000000  0.30000000  1.0
  Li+  Li8  1  0.50000000  0.50000000  0.50000000  1.0
  Li+  Li9  1  0.50000000  0.50000000  0.90000000  1.0
  Li+  Li10  1  0.50000000  0.00000000  0.10000000  1.0
  Li+  Li11  1  0.50000000  0.00000000  0.30000000  1.0
  Li+  Li12  1  0.50000000  0.00000000  0.70000000  1.0
  Li+  Li13  1  0.50000000  0.00000000  0.90000000  1.0
  Li+  Li14  1  0.00000000  0.25000000  0.30000000  1.0
  Li+  Li15  1  0.00000000  0.25000000  0.50000000  1.0
  Li+  Li16  1  0.00000000  0.25000000  0.70000000  1.0
  Li+  Li17  1  0.00000000  0.75000000  0.10000000  1.0
  Li+  Li18  1  0.00000000  0.75000000  0.70000000  1.0
  Li+  Li19  1  0.50000000  0.75000000  0.70000000  1.0
  Li+  Li20  1  0.12500000  0.06250000  0.22500000  1.0
  Li+  Li21  1  0.12500000  0.06250000  0.42500000  1.0
  Li+  Li22  1  0.12500000  0.06250000  0.62500000  1.0
  Li+  Li23  1  0.12500000  0.06250000  0.82500000  1.0
  Li+  Li24  1  0.12500000  0.56250000  0.22500000  1.0
  Li+  Li25  1  0.12500000  0.56250000  0.42500000  1.0
  Li+  Li26  1  0.12500000  0.56250000  0.62500000  1.0
  Li+  Li27  1  0.12500000  0.56250000  0.82500000  1.0
  Li+  Li28  1  0.87500000  0.43750000  0.17500000  1.0
  Li+  Li29  1  0.87500000  0.43750000  0.97500000  1.0
  Li+  Li30  1  0.87500000  0.93750000  0.17500000  1.0
  Li+  Li31  1  0.87500000  0.93750000  0.57500000  1.0
  Li+  Li32  1  0.87500000  0.93750000  0.97500000  1.0
  Mn2+  Mn33  1  0.50000000  0.25000000  0.40000000  1.0
  Mn2+  Mn34  1  0.50000000  0.75000000  0.00000000  1.0
  Mn2+  Mn35  1  0.50000000  0.75000000  0.80000000  1.0
  Mn2+  Mn36  1  0.50000000  0.50000000  0.70000000  1.0
  Mn2+  Mn37  1  0.50000000  0.00000000  0.50000000  1.0
  Mn2+  Mn38  1  0.00000000  0.25000000  0.90000000  1.0
  Mn2+  Mn39  1  0.00000000  0.75000000  0.50000000  1.0
  Mn2+  Mn40  1  0.00000000  0.75000000  0.90000000  1.0
  Mn2+  Mn41  1  0.50000000  0.25000000  0.10000000  1.0
  Mn2+  Mn42  1  0.50000000  0.25000000  0.30000000  1.0
  Mn2+  Mn43  1  0.50000000  0.75000000  0.30000000  1.0
  Mn2+  Mn44  1  0.50000000  0.75000000  0.50000000  1.0
  Mn2+  Mn45  1  0.50000000  0.75000000  0.90000000  1.0
  In3+  In46  1  0.50000000  0.25000000  0.60000000  1.0
  In3+  In47  1  0.00000000  0.25000000  0.10000000  1.0
  In3+  In48  1  0.00000000  0.75000000  0.30000000  1.0
  In3+  In49  1  0.50000000  0.25000000  0.50000000  1.0
  In3+  In50  1  0.50000000  0.25000000  0.70000000  1.0
  In3+  In51  1  0.50000000  0.25000000  0.90000000  1.0
  In3+  In52  1  0.50000000  0.75000000  0.10000000  1.0
  Cl-  Cl1  1  0.25628000  0.12814000  0.14623200  1.0
  Cl-  Cl1  1  0.25628000  0.12814000  0.34623200  1.0
  Cl-  Cl1  1  0.25628000  0.12814000  0.54623200  1.0
  Cl-  Cl1  1  0.25628000  0.12814000  0.74623200  1.0
  Cl-  Cl1  1  0.25628000  0.12814000  0.94623200  1.0
  Cl-  Cl1  1  0.25628000  0.62814000  0.14623200  1.0
  Cl-  Cl1  1  0.25628000  0.62814000  0.34623200  1.0
  Cl-  Cl1  1  0.25628000  0.62814000  0.54623200  1.0
  Cl-  Cl1  1  0.25628000  0.62814000  0.74623200  1.0
  Cl-  Cl1  1  0.25628000  0.62814000  0.94623200  1.0
  Cl-  Cl1  1  0.25628000  0.36558000  0.05125600  1.0
  Cl-  Cl1  1  0.25628000  0.36558000  0.25125600  1.0
  Cl-  Cl1  1  0.25628000  0.36558000  0.45125600  1.0
  Cl-  Cl1  1  0.25628000  0.36558000  0.65125600  1.0
  Cl-  Cl1  1  0.25628000  0.36558000  0.85125600  1.0
  Cl-  Cl1  1  0.25628000  0.86558000  0.05125600  1.0
  Cl-  Cl1  1  0.25628000  0.86558000  0.25125600  1.0
  Cl-  Cl1  1  0.25628000  0.86558000  0.45125600  1.0
  Cl-  Cl1  1  0.25628000  0.86558000  0.65125600  1.0
  Cl-  Cl1  1  0.25628000  0.86558000  0.85125600  1.0
  Cl-  Cl1  1  0.73116000  0.12814000  0.05125600  1.0
  Cl-  Cl1  1  0.73116000  0.12814000  0.25125600  1.0
  Cl-  Cl1  1  0.73116000  0.12814000  0.45125600  1.0
  Cl-  Cl1  1  0.73116000  0.12814000  0.65125600  1.0
  Cl-  Cl1  1  0.73116000  0.12814000  0.85125600  1.0
  Cl-  Cl1  1  0.73116000  0.62814000  0.05125600  1.0
  Cl-  Cl1  1  0.73116000  0.62814000  0.25125600  1.0
  Cl-  Cl1  1  0.73116000  0.62814000  0.45125600  1.0
  Cl-  Cl1  1  0.73116000  0.62814000  0.65125600  1.0
  Cl-  Cl1  1  0.73116000  0.62814000  0.85125600  1.0
  Cl-  Cl1  1  0.25628000  0.12814000  0.05125600  1.0
  Cl-  Cl1  1  0.25628000  0.12814000  0.25125600  1.0
  Cl-  Cl1  1  0.25628000  0.12814000  0.45125600  1.0
  Cl-  Cl1  1  0.25628000  0.12814000  0.65125600  1.0
  Cl-  Cl1  1  0.25628000  0.12814000  0.85125600  1.0
  Cl-  Cl1  1  0.25628000  0.62814000  0.05125600  1.0
  Cl-  Cl1  1  0.25628000  0.62814000  0.25125600  1.0
  Cl-  Cl1  1  0.25628000  0.62814000  0.45125600  1.0
  Cl-  Cl1  1  0.25628000  0.62814000  0.65125600  1.0
  Cl-  Cl1  1  0.25628000  0.62814000  0.85125600  1.0
  Cl-  Cl1  1  0.74372000  0.37186000  0.05376800  1.0
  Cl-  Cl1  1  0.74372000  0.37186000  0.25376800  1.0
  Cl-  Cl1  1  0.74372000  0.37186000  0.45376800  1.0
  Cl-  Cl1  1  0.74372000  0.37186000  0.65376800  1.0
  Cl-  Cl1  1  0.74372000  0.37186000  0.85376800  1.0
  Cl-  Cl1  1  0.74372000  0.87186000  0.05376800  1.0
  Cl-  Cl1  1  0.74372000  0.87186000  0.25376800  1.0
  Cl-  Cl1  1  0.74372000  0.87186000  0.45376800  1.0
  Cl-  Cl1  1  0.74372000  0.87186000  0.65376800  1.0
  Cl-  Cl1  1  0.74372000  0.87186000  0.85376800  1.0
  Cl-  Cl1  1  0.74372000  0.13442000  0.14874400  1.0
  Cl-  Cl1  1  0.74372000  0.13442000  0.34874400  1.0
  Cl-  Cl1  1  0.74372000  0.13442000  0.54874400  1.0
  Cl-  Cl1  1  0.74372000  0.13442000  0.74874400  1.0
  Cl-  Cl1  1  0.74372000  0.13442000  0.94874400  1.0
  Cl-  Cl1  1  0.74372000  0.63442000  0.14874400  1.0
  Cl-  Cl1  1  0.74372000  0.63442000  0.34874400  1.0
  Cl-  Cl1  1  0.74372000  0.63442000  0.54874400  1.0
  Cl-  Cl1  1  0.74372000  0.63442000  0.74874400  1.0
  Cl-  Cl1  1  0.74372000  0.63442000  0.94874400  1.0
  Cl-  Cl1  1  0.26884000  0.37186000  0.14874400  1.0
  Cl-  Cl1  1  0.26884000  0.37186000  0.34874400  1.0
  Cl-  Cl1  1  0.26884000  0.37186000  0.54874400  1.0
  Cl-  Cl1  1  0.26884000  0.37186000  0.74874400  1.0
  Cl-  Cl1  1  0.26884000  0.37186000  0.94874400  1.0
  Cl-  Cl1  1  0.26884000  0.87186000  0.14874400  1.0
  Cl-  Cl1  1  0.26884000  0.87186000  0.34874400  1.0
  Cl-  Cl1  1  0.26884000  0.87186000  0.54874400  1.0
  Cl-  Cl1  1  0.26884000  0.87186000  0.74874400  1.0
  Cl-  Cl1  1  0.26884000  0.87186000  0.94874400  1.0
  Cl-  Cl1  1  0.74372000  0.37186000  0.14874400  1.0
  Cl-  Cl1  1  0.74372000  0.37186000  0.34874400  1.0
  Cl-  Cl1  1  0.74372000  0.37186000  0.54874400  1.0
  Cl-  Cl1  1  0.74372000  0.37186000  0.74874400  1.0
  Cl-  Cl1  1  0.74372000  0.37186000  0.94874400  1.0
  Cl-  Cl1  1  0.74372000  0.87186000  0.14874400  1.0
  Cl-  Cl1  1  0.74372000  0.87186000  0.34874400  1.0
  Cl-  Cl1  1  0.74372000  0.87186000  0.54874400  1.0
  Cl-  Cl1  1  0.74372000  0.87186000  0.74874400  1.0
  Cl-  Cl1  1  0.74372000  0.87186000  0.94874400  1.0
