# generated using pymatgen
data_Li77Ge17Sb3S80
_symmetry_space_group_name_H-M   'P 1'
_cell_length_a   14.02390000
_cell_length_b   7.78627000
_cell_length_c   30.86310000
_cell_angle_alpha   90.00000000
_cell_angle_beta   90.00000000
_cell_angle_gamma   90.00000000
_symmetry_Int_Tables_number   1
_chemical_formula_structural   Li77Ge17Sb3S80
_chemical_formula_sum   'Li77 Ge17 Sb3 S80'
_cell_volume   3370.06138639
_cell_formula_units_Z   1
loop_
 _symmetry_equiv_pos_site_id
 _symmetry_equiv_pos_as_xyz
  1  'x, y, z'
loop_
 _atom_type_symbol
 _atom_type_oxidation_number
  Li+  1.0
  Ge4+  4.0
  Sb5+  5.0
  S2-  -2.0
loop_
 _atom_site_type_symbol
 _atom_site_label
 _atom_site_symmetry_multiplicity
 _atom_site_fract_x
 _atom_site_fract_y
 _atom_site_fract_z
 _atom_site_occupancy
  Li+  Li0  1  0.17600000  0.48500000  0.23720000  1.0
  Li+  Li1  1  0.82400000  0.51500000  0.56280000  1.0
  Li+  Li2  1  0.82400000  0.51500000  0.96280000  1.0
  Li+  Li3  1  0.32400000  0.51500000  0.13720000  1.0
  Li+  Li4  1  0.32400000  0.51500000  0.53720000  1.0
  Li+  Li5  1  0.67600000  0.01500000  0.46280000  1.0
  Li+  Li6  1  0.32400000  0.98500000  0.73720000  1.0
  Li+  Li7  1  0.00770000  0.97710000  0.29472000  1.0
  Li+  Li8  1  0.99230000  0.02290000  0.10528000  1.0
  Li+  Li9  1  0.99230000  0.02290000  0.50528000  1.0
  Li+  Li10  1  0.99230000  0.02290000  0.70528000  1.0
  Li+  Li11  1  0.99230000  0.02290000  0.90528000  1.0
  Li+  Li12  1  0.49230000  0.02290000  0.39472000  1.0
  Li+  Li13  1  0.49230000  0.02290000  0.79472000  1.0
  Li+  Li14  1  0.50770000  0.97710000  0.00528000  1.0
  Li+  Li15  1  0.50770000  0.97710000  0.40528000  1.0
  Li+  Li16  1  0.99230000  0.47710000  0.10528000  1.0
  Li+  Li17  1  0.99230000  0.47710000  0.50528000  1.0
  Li+  Li18  1  0.99230000  0.47710000  0.70528000  1.0
  Li+  Li19  1  0.00770000  0.52290000  0.29472000  1.0
  Li+  Li20  1  0.50770000  0.52290000  0.80528000  1.0
  Li+  Li21  1  0.49230000  0.47710000  0.39472000  1.0
  Li+  Li22  1  0.49230000  0.47710000  0.59472000  1.0
  Li+  Li23  1  0.49230000  0.47710000  0.79472000  1.0
  Li+  Li24  1  0.49230000  0.47710000  0.99472000  1.0
  Li+  Li25  1  0.41180000  0.75000000  0.07342000  1.0
  Li+  Li26  1  0.41180000  0.75000000  0.27342000  1.0
  Li+  Li27  1  0.41180000  0.75000000  0.47342000  1.0
  Li+  Li28  1  0.41180000  0.75000000  0.67342000  1.0
  Li+  Li29  1  0.41180000  0.75000000  0.87342000  1.0
  Li+  Li30  1  0.58820000  0.25000000  0.12658000  1.0
  Li+  Li31  1  0.58820000  0.25000000  0.32658000  1.0
  Li+  Li32  1  0.58820000  0.25000000  0.52658000  1.0
  Li+  Li33  1  0.58820000  0.25000000  0.72658000  1.0
  Li+  Li34  1  0.58820000  0.25000000  0.92658000  1.0
  Li+  Li35  1  0.08820000  0.25000000  0.17342000  1.0
  Li+  Li36  1  0.08820000  0.25000000  0.37342000  1.0
  Li+  Li37  1  0.08820000  0.25000000  0.77342000  1.0
  Li+  Li38  1  0.08820000  0.25000000  0.97342000  1.0
  Li+  Li39  1  0.91180000  0.75000000  0.02658000  1.0
  Li+  Li40  1  0.91180000  0.75000000  0.22658000  1.0
  Li+  Li41  1  0.91180000  0.75000000  0.42658000  1.0
  Li+  Li42  1  0.91180000  0.75000000  0.62658000  1.0
  Li+  Li43  1  0.91180000  0.75000000  0.82658000  1.0
  Li+  Li44  1  0.17420000  0.00040000  0.26300000  1.0
  Li+  Li45  1  0.17420000  0.00040000  0.46300000  1.0
  Li+  Li46  1  0.17420000  0.00040000  0.66300000  1.0
  Li+  Li47  1  0.17420000  0.00040000  0.86300000  1.0
  Li+  Li48  1  0.82580000  0.99960000  0.13700000  1.0
  Li+  Li49  1  0.82580000  0.99960000  0.33700000  1.0
  Li+  Li50  1  0.82580000  0.99960000  0.73700000  1.0
  Li+  Li51  1  0.82580000  0.99960000  0.93700000  1.0
  Li+  Li52  1  0.32580000  0.99960000  0.16300000  1.0
  Li+  Li53  1  0.32580000  0.99960000  0.36300000  1.0
  Li+  Li54  1  0.32580000  0.99960000  0.76300000  1.0
  Li+  Li55  1  0.32580000  0.99960000  0.96300000  1.0
  Li+  Li56  1  0.67420000  0.00040000  0.03700000  1.0
  Li+  Li57  1  0.67420000  0.00040000  0.23700000  1.0
  Li+  Li58  1  0.67420000  0.00040000  0.63700000  1.0
  Li+  Li59  1  0.67420000  0.00040000  0.83700000  1.0
  Li+  Li60  1  0.82580000  0.50040000  0.13700000  1.0
  Li+  Li61  1  0.82580000  0.50040000  0.33700000  1.0
  Li+  Li62  1  0.82580000  0.50040000  0.53700000  1.0
  Li+  Li63  1  0.82580000  0.50040000  0.73700000  1.0
  Li+  Li64  1  0.17420000  0.49960000  0.06300000  1.0
  Li+  Li65  1  0.17420000  0.49960000  0.26300000  1.0
  Li+  Li66  1  0.17420000  0.49960000  0.46300000  1.0
  Li+  Li67  1  0.17420000  0.49960000  0.66300000  1.0
  Li+  Li68  1  0.17420000  0.49960000  0.86300000  1.0
  Li+  Li69  1  0.67420000  0.49960000  0.03700000  1.0
  Li+  Li70  1  0.67420000  0.49960000  0.23700000  1.0
  Li+  Li71  1  0.67420000  0.49960000  0.63700000  1.0
  Li+  Li72  1  0.67420000  0.49960000  0.83700000  1.0
  Li+  Li73  1  0.32580000  0.50040000  0.16300000  1.0
  Li+  Li74  1  0.32580000  0.50040000  0.36300000  1.0
  Li+  Li75  1  0.32580000  0.50040000  0.56300000  1.0
  Li+  Li76  1  0.32580000  0.50040000  0.96300000  1.0
  Ge4+  Ge77  1  0.41120000  0.25000000  0.07014000  1.0
  Ge4+  Ge78  1  0.41120000  0.25000000  0.27014000  1.0
  Ge4+  Ge79  1  0.41120000  0.25000000  0.47014000  1.0
  Ge4+  Ge80  1  0.41120000  0.25000000  0.67014000  1.0
  Ge4+  Ge81  1  0.41120000  0.25000000  0.87014000  1.0
  Ge4+  Ge82  1  0.58880000  0.75000000  0.12986000  1.0
  Ge4+  Ge83  1  0.58880000  0.75000000  0.32986000  1.0
  Ge4+  Ge84  1  0.58880000  0.75000000  0.52986000  1.0
  Ge4+  Ge85  1  0.58880000  0.75000000  0.72986000  1.0
  Ge4+  Ge86  1  0.58880000  0.75000000  0.92986000  1.0
  Ge4+  Ge87  1  0.08880000  0.75000000  0.17014000  1.0
  Ge4+  Ge88  1  0.08880000  0.75000000  0.37014000  1.0
  Ge4+  Ge89  1  0.08880000  0.75000000  0.77014000  1.0
  Ge4+  Ge90  1  0.08880000  0.75000000  0.97014000  1.0
  Ge4+  Ge91  1  0.91120000  0.25000000  0.22986000  1.0
  Ge4+  Ge92  1  0.91120000  0.25000000  0.42986000  1.0
  Ge4+  Ge93  1  0.91120000  0.25000000  0.62986000  1.0
  Sb5+  Sb94  1  0.08880000  0.75000000  0.57014000  1.0
  Sb5+  Sb95  1  0.91120000  0.25000000  0.02986000  1.0
  Sb5+  Sb96  1  0.91120000  0.25000000  0.82986000  1.0
  S2-  S1  1  0.34293000  0.01540000  0.04462000  1.0
  S2-  S1  1  0.34293000  0.01540000  0.24462000  1.0
  S2-  S1  1  0.34293000  0.01540000  0.44462000  1.0
  S2-  S1  1  0.34293000  0.01540000  0.64462000  1.0
  S2-  S1  1  0.34293000  0.01540000  0.84462000  1.0
  S2-  S1  1  0.65707000  0.98460000  0.15538000  1.0
  S2-  S1  1  0.65707000  0.98460000  0.35538000  1.0
  S2-  S1  1  0.65707000  0.98460000  0.55538000  1.0
  S2-  S1  1  0.65707000  0.98460000  0.75538000  1.0
  S2-  S1  1  0.65707000  0.98460000  0.95538000  1.0
  S2-  S1  1  0.15707000  0.98460000  0.14462000  1.0
  S2-  S1  1  0.15707000  0.98460000  0.34462000  1.0
  S2-  S1  1  0.15707000  0.98460000  0.54462000  1.0
  S2-  S1  1  0.15707000  0.98460000  0.74462000  1.0
  S2-  S1  1  0.15707000  0.98460000  0.94462000  1.0
  S2-  S1  1  0.84293000  0.01540000  0.05538000  1.0
  S2-  S1  1  0.84293000  0.01540000  0.25538000  1.0
  S2-  S1  1  0.84293000  0.01540000  0.45538000  1.0
  S2-  S1  1  0.84293000  0.01540000  0.65538000  1.0
  S2-  S1  1  0.84293000  0.01540000  0.85538000  1.0
  S2-  S1  1  0.65707000  0.51540000  0.15538000  1.0
  S2-  S1  1  0.65707000  0.51540000  0.35538000  1.0
  S2-  S1  1  0.65707000  0.51540000  0.55538000  1.0
  S2-  S1  1  0.65707000  0.51540000  0.75538000  1.0
  S2-  S1  1  0.65707000  0.51540000  0.95538000  1.0
  S2-  S1  1  0.34293000  0.48460000  0.04462000  1.0
  S2-  S1  1  0.34293000  0.48460000  0.24462000  1.0
  S2-  S1  1  0.34293000  0.48460000  0.44462000  1.0
  S2-  S1  1  0.34293000  0.48460000  0.64462000  1.0
  S2-  S1  1  0.34293000  0.48460000  0.84462000  1.0
  S2-  S1  1  0.84293000  0.48460000  0.05538000  1.0
  S2-  S1  1  0.84293000  0.48460000  0.25538000  1.0
  S2-  S1  1  0.84293000  0.48460000  0.45538000  1.0
  S2-  S1  1  0.84293000  0.48460000  0.65538000  1.0
  S2-  S1  1  0.84293000  0.48460000  0.85538000  1.0
  S2-  S1  1  0.15707000  0.51540000  0.14462000  1.0
  S2-  S1  1  0.15707000  0.51540000  0.34462000  1.0
  S2-  S1  1  0.15707000  0.51540000  0.54462000  1.0
  S2-  S1  1  0.15707000  0.51540000  0.74462000  1.0
  S2-  S1  1  0.15707000  0.51540000  0.94462000  1.0
  S2-  S2  1  0.08680000  0.75000000  0.04156000  1.0
  S2-  S2  1  0.08680000  0.75000000  0.24156000  1.0
  S2-  S2  1  0.08680000  0.75000000  0.44156000  1.0
  S2-  S2  1  0.08680000  0.75000000  0.64156000  1.0
  S2-  S2  1  0.08680000  0.75000000  0.84156000  1.0
  S2-  S2  1  0.91320000  0.25000000  0.15844000  1.0
  S2-  S2  1  0.91320000  0.25000000  0.35844000  1.0
  S2-  S2  1  0.91320000  0.25000000  0.55844000  1.0
  S2-  S2  1  0.91320000  0.25000000  0.75844000  1.0
  S2-  S2  1  0.91320000  0.25000000  0.95844000  1.0
  S2-  S2  1  0.41320000  0.25000000  0.14156000  1.0
  S2-  S2  1  0.41320000  0.25000000  0.34156000  1.0
  S2-  S2  1  0.41320000  0.25000000  0.54156000  1.0
  S2-  S2  1  0.41320000  0.25000000  0.74156000  1.0
  S2-  S2  1  0.41320000  0.25000000  0.94156000  1.0
  S2-  S2  1  0.58680000  0.75000000  0.05844000  1.0
  S2-  S2  1  0.58680000  0.75000000  0.25844000  1.0
  S2-  S2  1  0.58680000  0.75000000  0.45844000  1.0
  S2-  S2  1  0.58680000  0.75000000  0.65844000  1.0
  S2-  S2  1  0.58680000  0.75000000  0.85844000  1.0
  S2-  S3  1  0.06180000  0.25000000  0.05332000  1.0
  S2-  S3  1  0.06180000  0.25000000  0.25332000  1.0
  S2-  S3  1  0.06180000  0.25000000  0.45332000  1.0
  S2-  S3  1  0.06180000  0.25000000  0.65332000  1.0
  S2-  S3  1  0.06180000  0.25000000  0.85332000  1.0
  S2-  S3  1  0.93820000  0.75000000  0.14668000  1.0
  S2-  S3  1  0.93820000  0.75000000  0.34668000  1.0
  S2-  S3  1  0.93820000  0.75000000  0.54668000  1.0
  S2-  S3  1  0.93820000  0.75000000  0.74668000  1.0
  S2-  S3  1  0.93820000  0.75000000  0.94668000  1.0
  S2-  S3  1  0.43820000  0.75000000  0.15332000  1.0
  S2-  S3  1  0.43820000  0.75000000  0.35332000  1.0
  S2-  S3  1  0.43820000  0.75000000  0.55332000  1.0
  S2-  S3  1  0.43820000  0.75000000  0.75332000  1.0
  S2-  S3  1  0.43820000  0.75000000  0.95332000  1.0
  S2-  S3  1  0.56180000  0.25000000  0.04668000  1.0
  S2-  S3  1  0.56180000  0.25000000  0.24668000  1.0
  S2-  S3  1  0.56180000  0.25000000  0.44668000  1.0
  S2-  S3  1  0.56180000  0.25000000  0.64668000  1.0
  S2-  S3  1  0.56180000  0.25000000  0.84668000  1.0
