# generated using pymatgen
data_Li7VGeO8
_symmetry_space_group_name_H-M   'P 1'
_cell_length_a   10.25160000
_cell_length_b   10.87140000
_cell_length_c   12.52120000
_cell_angle_alpha   90.00000000
_cell_angle_beta   90.00000000
_cell_angle_gamma   90.00000000
_symmetry_Int_Tables_number   1
_chemical_formula_structural   Li7VGeO8
_chemical_formula_sum   'Li56 V8 Ge8 O64'
_cell_volume   1395.47827698
_cell_formula_units_Z   8
loop_
 _symmetry_equiv_pos_site_id
 _symmetry_equiv_pos_as_xyz
  1  'x, y, z'
loop_
 _atom_type_symbol
 _atom_type_oxidation_number
  Li+  1.0
  V3+  3.0
  Ge4+  4.0
  O2-  -2.0
loop_
 _atom_site_type_symbol
 _atom_site_label
 _atom_site_symmetry_multiplicity
 _atom_site_fract_x
 _atom_site_fract_y
 _atom_site_fract_z
 _atom_site_occupancy
  Li+  Li0  1  0.34074516  0.92711015  0.62313506  1.0
  Li+  Li1  1  0.33700000  0.92480000  0.12500000  1.0
  Li+  Li2  1  0.83700000  0.92480000  0.62500000  1.0
  Li+  Li3  1  0.83700000  0.92480000  0.12500000  1.0
  Li+  Li4  1  0.41300000  0.42480000  0.62500000  1.0
  Li+  Li5  1  0.41300000  0.42480000  0.12500000  1.0
  Li+  Li6  1  0.91300000  0.42480000  0.62500000  1.0
  Li+  Li7  1  0.91278081  0.42643480  0.13033778  1.0
  Li+  Li8  1  0.16300000  0.07520000  0.37500000  1.0
  Li+  Li9  1  0.16253415  0.07357578  0.88112660  1.0
  Li+  Li10  1  0.66300000  0.07520000  0.37500000  1.0
  Li+  Li11  1  0.66300000  0.07520000  0.87500000  1.0
  Li+  Li12  1  0.08558689  0.57699808  0.37695311  1.0
  Li+  Li13  1  0.08798996  0.57713288  0.87580517  1.0
  Li+  Li14  1  0.58700000  0.57520000  0.37500000  1.0
  Li+  Li15  1  0.58700000  0.57520000  0.87500000  1.0
  Li+  Li16  1  0.02650000  0.47400000  0.48350000  1.0
  Li+  Li17  1  0.02650000  0.47400000  0.98350000  1.0
  Li+  Li18  1  0.97350000  0.52600000  0.73350000  1.0
  Li+  Li19  1  0.97350000  0.52600000  0.23350000  1.0
  Li+  Li20  1  0.89350000  0.16900000  0.48900000  1.0
  Li+  Li21  1  0.89350000  0.16900000  0.98900000  1.0
  Li+  Li22  1  0.64350000  0.33100000  0.73900000  1.0
  Li+  Li23  1  0.64350000  0.33100000  0.23900000  1.0
  Li+  Li24  1  0.39350000  0.16900000  0.26100000  1.0
  Li+  Li25  1  0.39350000  0.16900000  0.76100000  1.0
  Li+  Li26  1  0.23707554  0.71761574  0.37180805  1.0
  Li+  Li27  1  0.23345826  0.71673808  0.87514913  1.0
  Li+  Li28  1  0.76400000  0.28200000  0.62500000  1.0
  Li+  Li29  1  0.76400000  0.28200000  0.12500000  1.0
  Li+  Li30  1  0.48531077  0.78216480  0.62385499  1.0
  Li+  Li31  1  0.48600000  0.78200000  0.12500000  1.0
  Li+  Li32  1  0.91500000  0.66590000  0.74755000  1.0
  Li+  Li33  1  0.91500000  0.66590000  0.24755000  1.0
  Li+  Li34  1  0.33500000  0.16590000  0.50245000  1.0
  Li+  Li35  1  0.33500000  0.16590000  0.00245000  1.0
  Li+  Li36  1  0.08500000  0.33410000  0.49755000  1.0
  Li+  Li37  1  0.08500000  0.33410000  0.99755000  1.0
  Li+  Li38  1  0.58255757  0.33649631  0.49855190  1.0
  Li+  Li39  1  0.58500000  0.33410000  0.99755000  1.0
  Li+  Li40  1  0.16500000  0.83410000  0.25245000  1.0
  Li+  Li41  1  0.16705735  0.83285887  0.75448347  1.0
  Li+  Li42  1  0.66500000  0.83410000  0.25245000  1.0
  Li+  Li43  1  0.66641973  0.83200449  0.74932248  1.0
  Li+  Li44  1  0.08500000  0.33410000  0.25245000  1.0
  Li+  Li45  1  0.08500000  0.33410000  0.75245000  1.0
  Li+  Li46  1  0.58500000  0.33410000  0.25245000  1.0
  Li+  Li47  1  0.58404602  0.33326833  0.75254374  1.0
  Li+  Li48  1  0.16218624  0.82885084  0.49354829  1.0
  Li+  Li49  1  0.16546093  0.83055776  0.99559585  1.0
  Li+  Li50  1  0.41435158  0.66010760  0.50113247  1.0
  Li+  Li51  1  0.41500000  0.66590000  0.00245000  1.0
  Li+  Li52  1  0.91500000  0.66590000  0.50245000  1.0
  Li+  Li53  1  0.91252479  0.65996932  0.99995251  1.0
  Li+  Li54  1  0.83500000  0.16590000  0.74755000  1.0
  Li+  Li55  1  0.83500000  0.16590000  0.24755000  1.0
  V3+  V56  1  0.91835000  0.91240000  0.37500000  1.0
  V3+  V57  1  0.91835000  0.91240000  0.87500000  1.0
  V3+  V58  1  0.33165000  0.41240000  0.37500000  1.0
  V3+  V59  1  0.33165000  0.41240000  0.87500000  1.0
  V3+  V60  1  0.83165000  0.41240000  0.37500000  1.0
  V3+  V61  1  0.83165000  0.41240000  0.87500000  1.0
  V3+  V62  1  0.66799563  0.58964708  0.62531685  1.0
  V3+  V63  1  0.66835000  0.58760000  0.12500000  1.0
  Ge4+  Ge64  1  0.41835000  0.91240000  0.37500000  1.0
  Ge4+  Ge65  1  0.41863477  0.91032719  0.87253582  1.0
  Ge4+  Ge66  1  0.08204296  0.08517675  0.62353615  1.0
  Ge4+  Ge67  1  0.07864793  0.08612423  0.12674862  1.0
  Ge4+  Ge68  1  0.58165000  0.08760000  0.62500000  1.0
  Ge4+  Ge69  1  0.58188704  0.08681812  0.12409937  1.0
  Ge4+  Ge70  1  0.16992530  0.58686972  0.62342552  1.0
  Ge4+  Ge71  1  0.16835000  0.58760000  0.12500000  1.0
  O2-  O72  1  0.35888614  0.83840414  0.26599184  1.0
  O2-  O73  1  0.35980000  0.83710000  0.76250000  1.0
  O2-  O74  1  0.85980000  0.83710000  0.26250000  1.0
  O2-  O75  1  0.85980000  0.83710000  0.76250000  1.0
  O2-  O76  1  0.39020000  0.33710000  0.48750000  1.0
  O2-  O77  1  0.39020000  0.33710000  0.98750000  1.0
  O2-  O78  1  0.89020000  0.33710000  0.48750000  1.0
  O2-  O79  1  0.89020000  0.33710000  0.98750000  1.0
  O2-  O80  1  0.14020000  0.16290000  0.51250000  1.0
  O2-  O81  1  0.14020000  0.16290000  0.01250000  1.0
  O2-  O82  1  0.64020000  0.16290000  0.51250000  1.0
  O2-  O83  1  0.64530599  0.16153729  0.01055788  1.0
  O2-  O84  1  0.10980000  0.66290000  0.73750000  1.0
  O2-  O85  1  0.11679333  0.66510291  0.23300075  1.0
  O2-  O86  1  0.60869247  0.66619083  0.74004616  1.0
  O2-  O87  1  0.60980000  0.66290000  0.23750000  1.0
  O2-  O88  1  0.14020000  0.16290000  0.73750000  1.0
  O2-  O89  1  0.14020000  0.16290000  0.23750000  1.0
  O2-  O90  1  0.64020000  0.16290000  0.73750000  1.0
  O2-  O91  1  0.64108424  0.16505910  0.24317486  1.0
  O2-  O92  1  0.10980000  0.66290000  0.51250000  1.0
  O2-  O93  1  0.10980000  0.66290000  0.01250000  1.0
  O2-  O94  1  0.60980000  0.66290000  0.51250000  1.0
  O2-  O95  1  0.60980000  0.66290000  0.01250000  1.0
  O2-  O96  1  0.35980000  0.83710000  0.48750000  1.0
  O2-  O97  1  0.35980000  0.83710000  0.98750000  1.0
  O2-  O98  1  0.85980000  0.83710000  0.48750000  1.0
  O2-  O99  1  0.85980000  0.83710000  0.98750000  1.0
  O2-  O100  1  0.39020000  0.33710000  0.26250000  1.0
  O2-  O101  1  0.38776907  0.33749764  0.76068758  1.0
  O2-  O102  1  0.89077981  0.33720690  0.26343231  1.0
  O2-  O103  1  0.89020000  0.33710000  0.76250000  1.0
  O2-  O104  1  0.33625000  0.58690000  0.62500000  1.0
  O2-  O105  1  0.33488459  0.58699416  0.12471175  1.0
  O2-  O106  1  0.83479606  0.58891900  0.62599314  1.0
  O2-  O107  1  0.83625000  0.58690000  0.12500000  1.0
  O2-  O108  1  0.41375000  0.08690000  0.62500000  1.0
  O2-  O109  1  0.41375000  0.08690000  0.12500000  1.0
  O2-  O110  1  0.91375000  0.08690000  0.62500000  1.0
  O2-  O111  1  0.91312177  0.08733135  0.12976198  1.0
  O2-  O112  1  0.16375000  0.41310000  0.37500000  1.0
  O2-  O113  1  0.16375000  0.41310000  0.87500000  1.0
  O2-  O114  1  0.66276507  0.41627122  0.37730511  1.0
  O2-  O115  1  0.66387611  0.41448860  0.87696089  1.0
  O2-  O116  1  0.08625000  0.91310000  0.37500000  1.0
  O2-  O117  1  0.08625000  0.91310000  0.87500000  1.0
  O2-  O118  1  0.58625000  0.91310000  0.37500000  1.0
  O2-  O119  1  0.58625000  0.91310000  0.87500000  1.0
  O2-  O120  1  0.38935000  0.56280000  0.37500000  1.0
  O2-  O121  1  0.38935000  0.56280000  0.87500000  1.0
  O2-  O122  1  0.88935000  0.56280000  0.37500000  1.0
  O2-  O123  1  0.88935000  0.56280000  0.87500000  1.0
  O2-  O124  1  0.36065000  0.06280000  0.37500000  1.0
  O2-  O125  1  0.36065000  0.06280000  0.87500000  1.0
  O2-  O126  1  0.86065000  0.06280000  0.37500000  1.0
  O2-  O127  1  0.86065000  0.06280000  0.87500000  1.0
  O2-  O128  1  0.11065000  0.43720000  0.62500000  1.0
  O2-  O129  1  0.11065000  0.43720000  0.12500000  1.0
  O2-  O130  1  0.61065000  0.43720000  0.62500000  1.0
  O2-  O131  1  0.61065000  0.43720000  0.12500000  1.0
  O2-  O132  1  0.13935000  0.93720000  0.62500000  1.0
  O2-  O133  1  0.13935000  0.93720000  0.12500000  1.0
  O2-  O134  1  0.63935000  0.93720000  0.62500000  1.0
  O2-  O135  1  0.63935000  0.93720000  0.12500000  1.0
