# generated using pymatgen
data_Li7VGeO8
_symmetry_space_group_name_H-M   'P 1'
_cell_length_a   12.63771471
_cell_length_b   10.34699519
_cell_length_c   10.97256267
_cell_angle_alpha   90.00000000
_cell_angle_beta   90.00000000
_cell_angle_gamma   90.00000000
_symmetry_Int_Tables_number   1
_chemical_formula_structural   Li7VGeO8
_chemical_formula_sum   'Li56 V8 Ge8 O64'
_cell_volume   1434.79833610
_cell_formula_units_Z   8
loop_
 _symmetry_equiv_pos_site_id
 _symmetry_equiv_pos_as_xyz
  1  'x, y, z'
loop_
 _atom_type_symbol
 _atom_type_oxidation_number
  Li+  1.0
  V3+  3.0
  Ge4+  4.0
  O2-  -2.0
loop_
 _atom_site_type_symbol
 _atom_site_label
 _atom_site_symmetry_multiplicity
 _atom_site_fract_x
 _atom_site_fract_y
 _atom_site_fract_z
 _atom_site_occupancy
  Li+  Li0  1  0.87500000  0.32966667  0.07520000  1.0
  Li+  Li1  1  0.37500000  0.32966667  0.07520000  1.0
  Li+  Li2  1  0.87500000  0.82966667  0.07520000  1.0
  Li+  Li3  1  0.37500000  0.82966667  0.07520000  1.0
  Li+  Li4  1  0.87500000  0.25366667  0.57520000  1.0
  Li+  Li5  1  0.37500000  0.25366667  0.57520000  1.0
  Li+  Li6  1  0.87500000  0.75366667  0.57520000  1.0
  Li+  Li7  1  0.37500000  0.75366667  0.57520000  1.0
  Li+  Li8  1  0.62500000  0.50366667  0.92480000  1.0
  Li+  Li9  1  0.12500000  0.50366667  0.92480000  1.0
  Li+  Li10  1  0.62500000  0.00366667  0.92480000  1.0
  Li+  Li11  1  0.12500000  0.00366667  0.92480000  1.0
  Li+  Li12  1  0.62500000  0.57966667  0.42480000  1.0
  Li+  Li13  1  0.12500000  0.57966667  0.42480000  1.0
  Li+  Li14  1  0.62500000  0.07966667  0.42480000  1.0
  Li+  Li15  1  0.12500000  0.07966667  0.42480000  1.0
  Li+  Li16  1  0.73350000  0.64016667  0.52600000  1.0
  Li+  Li17  1  0.23350000  0.64016667  0.52600000  1.0
  Li+  Li18  1  0.98350000  0.69316667  0.47400000  1.0
  Li+  Li19  1  0.48350000  0.69316667  0.47400000  1.0
  Li+  Li20  1  0.73900000  0.77316667  0.83100000  1.0
  Li+  Li21  1  0.23900000  0.77316667  0.83100000  1.0
  Li+  Li22  1  0.98900000  0.02316667  0.66900000  1.0
  Li+  Li23  1  0.48900000  0.02316667  0.66900000  1.0
  Li+  Li24  1  0.51100000  0.27316667  0.83100000  1.0
  Li+  Li25  1  0.01100000  0.27316667  0.83100000  1.0
  Li+  Li26  1  0.62500000  0.43066667  0.28200000  1.0
  Li+  Li27  1  0.12500000  0.43066667  0.28200000  1.0
  Li+  Li28  1  0.87500000  0.90266667  0.71800000  1.0
  Li+  Li29  1  0.37500000  0.90266667  0.71800000  1.0
  Li+  Li30  1  0.87500000  0.18066667  0.21800000  1.0
  Li+  Li31  1  0.37500000  0.18066667  0.21800000  1.0
  Li+  Li32  1  0.99755000  0.75166667  0.33410000  1.0
  Li+  Li33  1  0.49755000  0.75166667  0.33410000  1.0
  Li+  Li34  1  0.75245000  0.33166667  0.83410000  1.0
  Li+  Li35  1  0.25245000  0.33166667  0.83410000  1.0
  Li+  Li36  1  0.74755000  0.58166667  0.66590000  1.0
  Li+  Li37  1  0.24755000  0.58166667  0.66590000  1.0
  Li+  Li38  1  0.74755000  0.08166667  0.66590000  1.0
  Li+  Li39  1  0.24755000  0.08166667  0.66590000  1.0
  Li+  Li40  1  0.50245000  0.50166667  0.16590000  1.0
  Li+  Li41  1  0.00245000  0.50166667  0.16590000  1.0
  Li+  Li42  1  0.50245000  0.00166667  0.16590000  1.0
  Li+  Li43  1  0.00245000  0.00166667  0.16590000  1.0
  Li+  Li44  1  0.50245000  0.58166667  0.66590000  1.0
  Li+  Li45  1  0.00245000  0.58166667  0.66590000  1.0
  Li+  Li46  1  0.50245000  0.08166667  0.66590000  1.0
  Li+  Li47  1  0.00245000  0.08166667  0.66590000  1.0
  Li+  Li48  1  0.74755000  0.50166667  0.16590000  1.0
  Li+  Li49  1  0.24755000  0.50166667  0.16590000  1.0
  Li+  Li50  1  0.75245000  0.25166667  0.33410000  1.0
  Li+  Li51  1  0.25245000  0.25166667  0.33410000  1.0
  Li+  Li52  1  0.75245000  0.75166667  0.33410000  1.0
  Li+  Li53  1  0.25245000  0.75166667  0.33410000  1.0
  Li+  Li54  1  0.99755000  0.83166667  0.83410000  1.0
  Li+  Li55  1  0.49755000  0.83166667  0.83410000  1.0
  V3+  V56  1  0.62500000  0.74831667  0.08760000  1.0
  V3+  V57  1  0.12500000  0.74831667  0.08760000  1.0
  V3+  V58  1  0.62500000  0.33501667  0.58760000  1.0
  V3+  V59  1  0.12500000  0.33501667  0.58760000  1.0
  V3+  V60  1  0.62500000  0.83501667  0.58760000  1.0
  V3+  V61  1  0.12500000  0.83501667  0.58760000  1.0
  V3+  V62  1  0.87500000  0.99831667  0.41240000  1.0
  V3+  V63  1  0.37500000  0.99831667  0.41240000  1.0
  Ge4+  Ge64  1  0.62500000  0.24831667  0.08760000  1.0
  Ge4+  Ge65  1  0.12500000  0.24831667  0.08760000  1.0
  Ge4+  Ge66  1  0.87500000  0.58501667  0.91240000  1.0
  Ge4+  Ge67  1  0.37500000  0.58501667  0.91240000  1.0
  Ge4+  Ge68  1  0.87500000  0.08501667  0.91240000  1.0
  Ge4+  Ge69  1  0.37500000  0.08501667  0.91240000  1.0
  Ge4+  Ge70  1  0.87500000  0.49831667  0.41240000  1.0
  Ge4+  Ge71  1  0.37500000  0.49831667  0.41240000  1.0
  O2-  O72  1  0.51250000  0.30686667  0.16290000  1.0
  O2-  O73  1  0.01250000  0.30686667  0.16290000  1.0
  O2-  O74  1  0.51250000  0.80686667  0.16290000  1.0
  O2-  O75  1  0.01250000  0.80686667  0.16290000  1.0
  O2-  O76  1  0.73750000  0.27646667  0.66290000  1.0
  O2-  O77  1  0.23750000  0.27646667  0.66290000  1.0
  O2-  O78  1  0.73750000  0.77646667  0.66290000  1.0
  O2-  O79  1  0.23750000  0.77646667  0.66290000  1.0
  O2-  O80  1  0.76250000  0.52646667  0.83710000  1.0
  O2-  O81  1  0.26250000  0.52646667  0.83710000  1.0
  O2-  O82  1  0.76250000  0.02646667  0.83710000  1.0
  O2-  O83  1  0.26250000  0.02646667  0.83710000  1.0
  O2-  O84  1  0.98750000  0.55686667  0.33710000  1.0
  O2-  O85  1  0.48750000  0.55686667  0.33710000  1.0
  O2-  O86  1  0.98750000  0.05686667  0.33710000  1.0
  O2-  O87  1  0.48750000  0.05686667  0.33710000  1.0
  O2-  O88  1  0.98750000  0.52646667  0.83710000  1.0
  O2-  O89  1  0.48750000  0.52646667  0.83710000  1.0
  O2-  O90  1  0.98750000  0.02646667  0.83710000  1.0
  O2-  O91  1  0.48750000  0.02646667  0.83710000  1.0
  O2-  O92  1  0.76250000  0.55686667  0.33710000  1.0
  O2-  O93  1  0.26250000  0.55686667  0.33710000  1.0
  O2-  O94  1  0.76250000  0.05686667  0.33710000  1.0
  O2-  O95  1  0.26250000  0.05686667  0.33710000  1.0
  O2-  O96  1  0.73750000  0.30686667  0.16290000  1.0
  O2-  O97  1  0.23750000  0.30686667  0.16290000  1.0
  O2-  O98  1  0.73750000  0.80686667  0.16290000  1.0
  O2-  O99  1  0.23750000  0.80686667  0.16290000  1.0
  O2-  O100  1  0.51250000  0.27646667  0.66290000  1.0
  O2-  O101  1  0.01250000  0.27646667  0.66290000  1.0
  O2-  O102  1  0.51250000  0.77646667  0.66290000  1.0
  O2-  O103  1  0.01250000  0.77646667  0.66290000  1.0
  O2-  O104  1  0.87500000  0.33041667  0.41310000  1.0
  O2-  O105  1  0.37500000  0.33041667  0.41310000  1.0
  O2-  O106  1  0.87500000  0.83041667  0.41310000  1.0
  O2-  O107  1  0.37500000  0.83041667  0.41310000  1.0
  O2-  O108  1  0.87500000  0.25291667  0.91310000  1.0
  O2-  O109  1  0.37500000  0.25291667  0.91310000  1.0
  O2-  O110  1  0.87500000  0.75291667  0.91310000  1.0
  O2-  O111  1  0.37500000  0.75291667  0.91310000  1.0
  O2-  O112  1  0.62500000  0.50291667  0.58690000  1.0
  O2-  O113  1  0.12500000  0.50291667  0.58690000  1.0
  O2-  O114  1  0.62500000  0.00291667  0.58690000  1.0
  O2-  O115  1  0.12500000  0.00291667  0.58690000  1.0
  O2-  O116  1  0.62500000  0.58041667  0.08690000  1.0
  O2-  O117  1  0.12500000  0.58041667  0.08690000  1.0
  O2-  O118  1  0.62500000  0.08041667  0.08690000  1.0
  O2-  O119  1  0.12500000  0.08041667  0.08690000  1.0
  O2-  O120  1  0.62500000  0.27731667  0.43720000  1.0
  O2-  O121  1  0.12500000  0.27731667  0.43720000  1.0
  O2-  O122  1  0.62500000  0.77731667  0.43720000  1.0
  O2-  O123  1  0.12500000  0.77731667  0.43720000  1.0
  O2-  O124  1  0.62500000  0.30601667  0.93720000  1.0
  O2-  O125  1  0.12500000  0.30601667  0.93720000  1.0
  O2-  O126  1  0.62500000  0.80601667  0.93720000  1.0
  O2-  O127  1  0.12500000  0.80601667  0.93720000  1.0
  O2-  O128  1  0.87500000  0.55601667  0.56280000  1.0
  O2-  O129  1  0.37500000  0.55601667  0.56280000  1.0
  O2-  O130  1  0.87500000  0.05601667  0.56280000  1.0
  O2-  O131  1  0.37500000  0.05601667  0.56280000  1.0
  O2-  O132  1  0.87500000  0.52731667  0.06280000  1.0
  O2-  O133  1  0.37500000  0.52731667  0.06280000  1.0
  O2-  O134  1  0.87500000  0.02731667  0.06280000  1.0
  O2-  O135  1  0.37500000  0.02731667  0.06280000  1.0
