# generated using pymatgen
data_Li7VGeO8
_symmetry_space_group_name_H-M   'P 1'
_cell_length_a   10.25160000
_cell_length_b   12.52120000
_cell_length_c   10.87140000
_cell_angle_alpha   90.00000000
_cell_angle_beta   90.00000000
_cell_angle_gamma   90.00000000
_symmetry_Int_Tables_number   1
_chemical_formula_structural   Li7VGeO8
_chemical_formula_sum   'Li56 V8 Ge8 O64'
_cell_volume   1395.47827698
_cell_formula_units_Z   8
loop_
 _symmetry_equiv_pos_site_id
 _symmetry_equiv_pos_as_xyz
  1  'x, y, z'
loop_
 _atom_type_symbol
 _atom_type_oxidation_number
  Li+  1.0
  V3+  3.0
  Ge4+  4.0
  O2-  -2.0
loop_
 _atom_site_type_symbol
 _atom_site_label
 _atom_site_symmetry_multiplicity
 _atom_site_fract_x
 _atom_site_fract_y
 _atom_site_fract_z
 _atom_site_occupancy
  Li+  Li1  1  0.33700000  0.12500000  0.07520000  1.0
  Li+  Li1  1  0.33700000  0.62500000  0.07520000  1.0
  Li+  Li1  1  0.83700000  0.12500000  0.07520000  1.0
  Li+  Li1  1  0.83700000  0.62500000  0.07520000  1.0
  Li+  Li1  1  0.41300000  0.12500000  0.57520000  1.0
  Li+  Li1  1  0.41300000  0.62500000  0.57520000  1.0
  Li+  Li1  1  0.91300000  0.12500000  0.57520000  1.0
  Li+  Li1  1  0.91300000  0.62500000  0.57520000  1.0
  Li+  Li1  1  0.16300000  0.37500000  0.92480000  1.0
  Li+  Li1  1  0.16300000  0.87500000  0.92480000  1.0
  Li+  Li1  1  0.66300000  0.37500000  0.92480000  1.0
  Li+  Li1  1  0.66300000  0.87500000  0.92480000  1.0
  Li+  Li1  1  0.08700000  0.37500000  0.42480000  1.0
  Li+  Li1  1  0.08700000  0.87500000  0.42480000  1.0
  Li+  Li1  1  0.58700000  0.37500000  0.42480000  1.0
  Li+  Li1  1  0.58700000  0.87500000  0.42480000  1.0
  Li+  Li8  1  0.02650000  0.26650000  0.52600000  1.0
  Li+  Li8  1  0.02650000  0.76650000  0.52600000  1.0
  Li+  Li9  1  0.97350000  0.01650000  0.47400000  1.0
  Li+  Li9  1  0.97350000  0.51650000  0.47400000  1.0
  Li+  Li10  1  0.89350000  0.26100000  0.83100000  1.0
  Li+  Li10  1  0.89350000  0.76100000  0.83100000  1.0
  Li+  Li11  1  0.64350000  0.01100000  0.66900000  1.0
  Li+  Li11  1  0.64350000  0.51100000  0.66900000  1.0
  Li+  Li12  1  0.39350000  0.48900000  0.83100000  1.0
  Li+  Li12  1  0.39350000  0.98900000  0.83100000  1.0
  Li+  Li13  1  0.23600000  0.37500000  0.28200000  1.0
  Li+  Li13  1  0.23600000  0.87500000  0.28200000  1.0
  Li+  Li14  1  0.76400000  0.12500000  0.71800000  1.0
  Li+  Li14  1  0.76400000  0.62500000  0.71800000  1.0
  Li+  Li15  1  0.48600000  0.12500000  0.21800000  1.0
  Li+  Li15  1  0.48600000  0.62500000  0.21800000  1.0
  Li+  Li16  1  0.91500000  0.00245000  0.33410000  1.0
  Li+  Li16  1  0.91500000  0.50245000  0.33410000  1.0
  Li+  Li17  1  0.33500000  0.24755000  0.83410000  1.0
  Li+  Li17  1  0.33500000  0.74755000  0.83410000  1.0
  Li+  Li18  1  0.08500000  0.25245000  0.66590000  1.0
  Li+  Li18  1  0.08500000  0.75245000  0.66590000  1.0
  Li+  Li19  1  0.58500000  0.25245000  0.66590000  1.0
  Li+  Li19  1  0.58500000  0.75245000  0.66590000  1.0
  Li+  Li20  1  0.16500000  0.49755000  0.16590000  1.0
  Li+  Li20  1  0.16500000  0.99755000  0.16590000  1.0
  Li+  Li21  1  0.66500000  0.49755000  0.16590000  1.0
  Li+  Li21  1  0.66500000  0.99755000  0.16590000  1.0
  Li+  Li22  1  0.08500000  0.49755000  0.66590000  1.0
  Li+  Li22  1  0.08500000  0.99755000  0.66590000  1.0
  Li+  Li23  1  0.58500000  0.49755000  0.66590000  1.0
  Li+  Li23  1  0.58500000  0.99755000  0.66590000  1.0
  Li+  Li24  1  0.16500000  0.25245000  0.16590000  1.0
  Li+  Li24  1  0.16500000  0.75245000  0.16590000  1.0
  Li+  Li25  1  0.41500000  0.24755000  0.33410000  1.0
  Li+  Li25  1  0.41500000  0.74755000  0.33410000  1.0
  Li+  Li26  1  0.91500000  0.24755000  0.33410000  1.0
  Li+  Li26  1  0.91500000  0.74755000  0.33410000  1.0
  Li+  Li27  1  0.83500000  0.00245000  0.83410000  1.0
  Li+  Li27  1  0.83500000  0.50245000  0.83410000  1.0
  V3+  V28  1  0.91835000  0.37500000  0.08760000  1.0
  V3+  V28  1  0.91835000  0.87500000  0.08760000  1.0
  V3+  V29  1  0.33165000  0.37500000  0.58760000  1.0
  V3+  V29  1  0.33165000  0.87500000  0.58760000  1.0
  V3+  V30  1  0.83165000  0.37500000  0.58760000  1.0
  V3+  V30  1  0.83165000  0.87500000  0.58760000  1.0
  V3+  V31  1  0.66835000  0.12500000  0.41240000  1.0
  V3+  V31  1  0.66835000  0.62500000  0.41240000  1.0
  Ge4+  Ge32  1  0.41835000  0.37500000  0.08760000  1.0
  Ge4+  Ge32  1  0.41835000  0.87500000  0.08760000  1.0
  Ge4+  Ge33  1  0.08165000  0.12500000  0.91240000  1.0
  Ge4+  Ge33  1  0.08165000  0.62500000  0.91240000  1.0
  Ge4+  Ge34  1  0.58165000  0.12500000  0.91240000  1.0
  Ge4+  Ge34  1  0.58165000  0.62500000  0.91240000  1.0
  Ge4+  Ge35  1  0.16835000  0.12500000  0.41240000  1.0
  Ge4+  Ge35  1  0.16835000  0.62500000  0.41240000  1.0
  O2-  O1  1  0.35980000  0.48750000  0.16290000  1.0
  O2-  O1  1  0.35980000  0.98750000  0.16290000  1.0
  O2-  O1  1  0.85980000  0.48750000  0.16290000  1.0
  O2-  O1  1  0.85980000  0.98750000  0.16290000  1.0
  O2-  O1  1  0.39020000  0.26250000  0.66290000  1.0
  O2-  O1  1  0.39020000  0.76250000  0.66290000  1.0
  O2-  O1  1  0.89020000  0.26250000  0.66290000  1.0
  O2-  O1  1  0.89020000  0.76250000  0.66290000  1.0
  O2-  O1  1  0.14020000  0.23750000  0.83710000  1.0
  O2-  O1  1  0.14020000  0.73750000  0.83710000  1.0
  O2-  O1  1  0.64020000  0.23750000  0.83710000  1.0
  O2-  O1  1  0.64020000  0.73750000  0.83710000  1.0
  O2-  O1  1  0.10980000  0.01250000  0.33710000  1.0
  O2-  O1  1  0.10980000  0.51250000  0.33710000  1.0
  O2-  O1  1  0.60980000  0.01250000  0.33710000  1.0
  O2-  O1  1  0.60980000  0.51250000  0.33710000  1.0
  O2-  O1  1  0.14020000  0.01250000  0.83710000  1.0
  O2-  O1  1  0.14020000  0.51250000  0.83710000  1.0
  O2-  O1  1  0.64020000  0.01250000  0.83710000  1.0
  O2-  O1  1  0.64020000  0.51250000  0.83710000  1.0
  O2-  O1  1  0.10980000  0.23750000  0.33710000  1.0
  O2-  O1  1  0.10980000  0.73750000  0.33710000  1.0
  O2-  O1  1  0.60980000  0.23750000  0.33710000  1.0
  O2-  O1  1  0.60980000  0.73750000  0.33710000  1.0
  O2-  O1  1  0.35980000  0.26250000  0.16290000  1.0
  O2-  O1  1  0.35980000  0.76250000  0.16290000  1.0
  O2-  O1  1  0.85980000  0.26250000  0.16290000  1.0
  O2-  O1  1  0.85980000  0.76250000  0.16290000  1.0
  O2-  O1  1  0.39020000  0.48750000  0.66290000  1.0
  O2-  O1  1  0.39020000  0.98750000  0.66290000  1.0
  O2-  O1  1  0.89020000  0.48750000  0.66290000  1.0
  O2-  O1  1  0.89020000  0.98750000  0.66290000  1.0
  O2-  O2  1  0.33625000  0.12500000  0.41310000  1.0
  O2-  O2  1  0.33625000  0.62500000  0.41310000  1.0
  O2-  O2  1  0.83625000  0.12500000  0.41310000  1.0
  O2-  O2  1  0.83625000  0.62500000  0.41310000  1.0
  O2-  O2  1  0.41375000  0.12500000  0.91310000  1.0
  O2-  O2  1  0.41375000  0.62500000  0.91310000  1.0
  O2-  O2  1  0.91375000  0.12500000  0.91310000  1.0
  O2-  O2  1  0.91375000  0.62500000  0.91310000  1.0
  O2-  O2  1  0.16375000  0.37500000  0.58690000  1.0
  O2-  O2  1  0.16375000  0.87500000  0.58690000  1.0
  O2-  O2  1  0.66375000  0.37500000  0.58690000  1.0
  O2-  O2  1  0.66375000  0.87500000  0.58690000  1.0
  O2-  O2  1  0.08625000  0.37500000  0.08690000  1.0
  O2-  O2  1  0.08625000  0.87500000  0.08690000  1.0
  O2-  O2  1  0.58625000  0.37500000  0.08690000  1.0
  O2-  O2  1  0.58625000  0.87500000  0.08690000  1.0
  O2-  O3  1  0.38935000  0.37500000  0.43720000  1.0
  O2-  O3  1  0.38935000  0.87500000  0.43720000  1.0
  O2-  O3  1  0.88935000  0.37500000  0.43720000  1.0
  O2-  O3  1  0.88935000  0.87500000  0.43720000  1.0
  O2-  O3  1  0.36065000  0.37500000  0.93720000  1.0
  O2-  O3  1  0.36065000  0.87500000  0.93720000  1.0
  O2-  O3  1  0.86065000  0.37500000  0.93720000  1.0
  O2-  O3  1  0.86065000  0.87500000  0.93720000  1.0
  O2-  O3  1  0.11065000  0.12500000  0.56280000  1.0
  O2-  O3  1  0.11065000  0.62500000  0.56280000  1.0
  O2-  O3  1  0.61065000  0.12500000  0.56280000  1.0
  O2-  O3  1  0.61065000  0.62500000  0.56280000  1.0
  O2-  O3  1  0.13935000  0.12500000  0.06280000  1.0
  O2-  O3  1  0.13935000  0.62500000  0.06280000  1.0
  O2-  O3  1  0.63935000  0.12500000  0.06280000  1.0
  O2-  O3  1  0.63935000  0.62500000  0.06280000  1.0
