# generated using pymatgen
data_BaLi6La2Ta2O12
_symmetry_space_group_name_H-M   'P 1'
_cell_length_a   22.51191468
_cell_length_b   11.25595734
_cell_length_c   11.25595734
_cell_angle_alpha   109.47122063
_cell_angle_beta   109.47122063
_cell_angle_gamma   109.47122063
_symmetry_Int_Tables_number   1
_chemical_formula_structural   BaLi6La2Ta2O12
_chemical_formula_sum   'Ba8 Li48 La16 Ta16 O96'
_cell_volume   2195.61111338
_cell_formula_units_Z   8
loop_
 _symmetry_equiv_pos_site_id
 _symmetry_equiv_pos_as_xyz
  1  'x, y, z'
loop_
 _atom_type_symbol
 _atom_type_oxidation_number
  Ba2+  2.0
  Li+  1.0
  La3+  3.0
  Ta5+  5.0
  O2-  -2.0
loop_
 _atom_site_type_symbol
 _atom_site_label
 _atom_site_symmetry_multiplicity
 _atom_site_fract_x
 _atom_site_fract_y
 _atom_site_fract_z
 _atom_site_occupancy
  Ba2+  Ba0  1  0.06250000  0.75000000  0.37500000  1.0
  Ba2+  Ba0  1  0.56250000  0.75000000  0.37500000  1.0
  Ba2+  Ba1  1  0.18750000  0.62500000  0.25000000  1.0
  Ba2+  Ba1  1  0.68750000  0.62500000  0.25000000  1.0
  Ba2+  Ba2  1  0.12500000  0.37500000  0.62500000  1.0
  Ba2+  Ba2  1  0.62500000  0.37500000  0.62500000  1.0
  Ba2+  Ba3  1  0.37500000  0.12500000  0.87500000  1.0
  Ba2+  Ba3  1  0.87500000  0.12500000  0.87500000  1.0
  Li+  Li4  1  0.12500000  0.12500000  0.37500000  1.0
  Li+  Li4  1  0.62500000  0.12500000  0.37500000  1.0
  Li+  Li5  1  0.18750000  0.75000000  0.62500000  1.0
  Li+  Li5  1  0.68750000  0.75000000  0.62500000  1.0
  Li+  Li6  1  0.31250000  0.87500000  0.25000000  1.0
  Li+  Li6  1  0.81250000  0.87500000  0.25000000  1.0
  Li+  Li7  1  0.12500000  0.62500000  0.87500000  1.0
  Li+  Li7  1  0.62500000  0.62500000  0.87500000  1.0
  Li+  Li8  1  0.43750000  0.75000000  0.12500000  1.0
  Li+  Li8  1  0.93750000  0.75000000  0.12500000  1.0
  Li+  Li9  1  0.18750000  0.12500000  0.75000000  1.0
  Li+  Li9  1  0.68750000  0.12500000  0.75000000  1.0
  Li+  Li10  1  0.06250000  0.37500000  0.25000000  1.0
  Li+  Li10  1  0.56250000  0.37500000  0.25000000  1.0
  Li+  Li11  1  0.05200000  0.30200000  0.05200000  1.0
  Li+  Li11  1  0.55200000  0.30200000  0.05200000  1.0
  Li+  Li12  1  0.12500000  0.19800000  0.80200000  1.0
  Li+  Li12  1  0.62500000  0.19800000  0.80200000  1.0
  Li+  Li13  1  0.12500000  0.55200000  0.44800000  1.0
  Li+  Li13  1  0.62500000  0.55200000  0.44800000  1.0
  Li+  Li14  1  0.40100000  0.75000000  0.69800000  1.0
  Li+  Li14  1  0.90100000  0.75000000  0.69800000  1.0
  Li+  Li15  1  0.22400000  0.75000000  0.05200000  1.0
  Li+  Li15  1  0.72400000  0.75000000  0.05200000  1.0
  Li+  Li16  1  0.02600000  0.60400000  0.80200000  1.0
  Li+  Li16  1  0.52600000  0.60400000  0.80200000  1.0
  Li+  Li17  1  0.34900000  0.89600000  0.44800000  1.0
  Li+  Li17  1  0.84900000  0.89600000  0.44800000  1.0
  Li+  Li18  1  0.34900000  0.30200000  0.25000000  1.0
  Li+  Li18  1  0.84900000  0.30200000  0.25000000  1.0
  Li+  Li19  1  0.22400000  0.19800000  0.39600000  1.0
  Li+  Li19  1  0.72400000  0.19800000  0.39600000  1.0
  Li+  Li20  1  0.44800000  0.69800000  0.94800000  1.0
  Li+  Li20  1  0.94800000  0.69800000  0.94800000  1.0
  Li+  Li21  1  0.37500000  0.80200000  0.19800000  1.0
  Li+  Li21  1  0.87500000  0.80200000  0.19800000  1.0
  Li+  Li22  1  0.37500000  0.44800000  0.55200000  1.0
  Li+  Li22  1  0.87500000  0.44800000  0.55200000  1.0
  Li+  Li23  1  0.27600000  0.25000000  0.94800000  1.0
  Li+  Li23  1  0.77600000  0.25000000  0.94800000  1.0
  Li+  Li24  1  0.47400000  0.39600000  0.19800000  1.0
  Li+  Li24  1  0.97400000  0.39600000  0.19800000  1.0
  Li+  Li25  1  0.47400000  0.05200000  0.75000000  1.0
  Li+  Li25  1  0.97400000  0.05200000  0.75000000  1.0
  Li+  Li26  1  0.15100000  0.69800000  0.75000000  1.0
  Li+  Li26  1  0.65100000  0.69800000  0.75000000  1.0
  Li+  Li27  1  0.27600000  0.80200000  0.60400000  1.0
  Li+  Li27  1  0.77600000  0.80200000  0.60400000  1.0
  La3+  La28  1  0.37500000  0.62500000  0.37500000  1.0
  La3+  La28  1  0.87500000  0.62500000  0.37500000  1.0
  La3+  La29  1  0.12500000  0.87500000  0.12500000  1.0
  La3+  La29  1  0.62500000  0.87500000  0.12500000  1.0
  La3+  La30  1  0.18750000  0.25000000  0.12500000  1.0
  La3+  La30  1  0.68750000  0.25000000  0.12500000  1.0
  La3+  La31  1  0.06250000  0.87500000  0.75000000  1.0
  La3+  La31  1  0.56250000  0.87500000  0.75000000  1.0
  La3+  La32  1  0.43750000  0.25000000  0.62500000  1.0
  La3+  La32  1  0.93750000  0.25000000  0.62500000  1.0
  La3+  La33  1  0.31250000  0.75000000  0.87500000  1.0
  La3+  La33  1  0.81250000  0.75000000  0.87500000  1.0
  La3+  La34  1  0.31250000  0.37500000  0.75000000  1.0
  La3+  La34  1  0.81250000  0.37500000  0.75000000  1.0
  La3+  La35  1  0.43750000  0.12500000  0.25000000  1.0
  La3+  La35  1  0.93750000  0.12500000  0.25000000  1.0
  Ta5+  Ta1  1  0.00000000  0.00000000  0.50000000  1.0
  Ta5+  Ta1  1  0.50000000  0.00000000  0.50000000  1.0
  Ta5+  Ta1  1  0.25000000  0.50000000  0.50000000  1.0
  Ta5+  Ta1  1  0.75000000  0.50000000  0.50000000  1.0
  Ta5+  Ta1  1  0.00000000  0.50000000  0.00000000  1.0
  Ta5+  Ta1  1  0.50000000  0.50000000  0.00000000  1.0
  Ta5+  Ta1  1  0.25000000  0.00000000  0.00000000  1.0
  Ta5+  Ta1  1  0.75000000  0.00000000  0.00000000  1.0
  Ta5+  Ta1  1  0.00000000  0.50000000  0.50000000  1.0
  Ta5+  Ta1  1  0.50000000  0.50000000  0.50000000  1.0
  Ta5+  Ta1  1  0.25000000  0.00000000  0.50000000  1.0
  Ta5+  Ta1  1  0.75000000  0.00000000  0.50000000  1.0
  Ta5+  Ta1  1  0.25000000  0.50000000  0.00000000  1.0
  Ta5+  Ta1  1  0.75000000  0.50000000  0.00000000  1.0
  Ta5+  Ta1  1  0.00000000  0.00000000  0.00000000  1.0
  Ta5+  Ta1  1  0.50000000  0.00000000  0.00000000  1.0
  O2-  O1  1  0.45281500  0.88985000  0.58014000  1.0
  O2-  O1  1  0.95281500  0.88985000  0.58014000  1.0
  O2-  O1  1  0.29718500  0.67451000  0.48422000  1.0
  O2-  O1  1  0.79718500  0.67451000  0.48422000  1.0
  O2-  O1  1  0.09514500  0.61015000  0.01578000  1.0
  O2-  O1  1  0.59514500  0.61015000  0.01578000  1.0
  O2-  O1  1  0.15485500  0.82549000  0.91986000  1.0
  O2-  O1  1  0.65485500  0.82549000  0.91986000  1.0
  O2-  O1  1  0.00789000  0.69029000  0.11015000  1.0
  O2-  O1  1  0.50789000  0.69029000  0.11015000  1.0
  O2-  O1  1  0.45993000  0.80971000  0.32549000  1.0
  O2-  O1  1  0.95993000  0.80971000  0.32549000  1.0
  O2-  O1  1  0.29007000  0.40563000  0.38985000  1.0
  O2-  O1  1  0.79007000  0.40563000  0.38985000  1.0
  O2-  O1  1  0.24211000  0.09437000  0.17451000  1.0
  O2-  O1  1  0.74211000  0.09437000  0.17451000  1.0
  O2-  O1  1  0.16274500  0.41986000  0.30971000  1.0
  O2-  O1  1  0.66274500  0.41986000  0.30971000  1.0
  O2-  O1  1  0.05507500  0.51578000  0.19029000  1.0
  O2-  O1  1  0.55507500  0.51578000  0.19029000  1.0
  O2-  O1  1  0.08725500  0.98422000  0.59437000  1.0
  O2-  O1  1  0.58725500  0.98422000  0.59437000  1.0
  O2-  O1  1  0.19492500  0.08014000  0.90563000  1.0
  O2-  O1  1  0.69492500  0.08014000  0.90563000  1.0
  O2-  O1  1  0.04718500  0.11015000  0.41986000  1.0
  O2-  O1  1  0.54718500  0.11015000  0.41986000  1.0
  O2-  O1  1  0.20281500  0.32549000  0.51578000  1.0
  O2-  O1  1  0.70281500  0.32549000  0.51578000  1.0
  O2-  O1  1  0.40485500  0.38985000  0.98422000  1.0
  O2-  O1  1  0.90485500  0.38985000  0.98422000  1.0
  O2-  O1  1  0.34514500  0.17451000  0.08014000  1.0
  O2-  O1  1  0.84514500  0.17451000  0.08014000  1.0
  O2-  O1  1  0.49211000  0.30971000  0.88985000  1.0
  O2-  O1  1  0.99211000  0.30971000  0.88985000  1.0
  O2-  O1  1  0.04007000  0.19029000  0.67451000  1.0
  O2-  O1  1  0.54007000  0.19029000  0.67451000  1.0
  O2-  O1  1  0.20993000  0.59437000  0.61015000  1.0
  O2-  O1  1  0.70993000  0.59437000  0.61015000  1.0
  O2-  O1  1  0.25789000  0.90563000  0.82549000  1.0
  O2-  O1  1  0.75789000  0.90563000  0.82549000  1.0
  O2-  O1  1  0.33725500  0.58014000  0.69029000  1.0
  O2-  O1  1  0.83725500  0.58014000  0.69029000  1.0
  O2-  O1  1  0.44492500  0.48422000  0.80971000  1.0
  O2-  O1  1  0.94492500  0.48422000  0.80971000  1.0
  O2-  O1  1  0.41274500  0.01578000  0.40563000  1.0
  O2-  O1  1  0.91274500  0.01578000  0.40563000  1.0
  O2-  O1  1  0.30507500  0.91986000  0.09437000  1.0
  O2-  O1  1  0.80507500  0.91986000  0.09437000  1.0
  O2-  O1  1  0.41274500  0.30971000  0.41986000  1.0
  O2-  O1  1  0.91274500  0.30971000  0.41986000  1.0
  O2-  O1  1  0.30507500  0.19029000  0.51578000  1.0
  O2-  O1  1  0.80507500  0.19029000  0.51578000  1.0
  O2-  O1  1  0.33725500  0.59437000  0.98422000  1.0
  O2-  O1  1  0.83725500  0.59437000  0.98422000  1.0
  O2-  O1  1  0.44492500  0.90563000  0.08014000  1.0
  O2-  O1  1  0.94492500  0.90563000  0.08014000  1.0
  O2-  O1  1  0.20281500  0.58014000  0.88985000  1.0
  O2-  O1  1  0.70281500  0.58014000  0.88985000  1.0
  O2-  O1  1  0.04718500  0.48422000  0.67451000  1.0
  O2-  O1  1  0.54718500  0.48422000  0.67451000  1.0
  O2-  O1  1  0.34514500  0.01578000  0.61015000  1.0
  O2-  O1  1  0.84514500  0.01578000  0.61015000  1.0
  O2-  O1  1  0.40485500  0.91986000  0.82549000  1.0
  O2-  O1  1  0.90485500  0.91986000  0.82549000  1.0
  O2-  O1  1  0.25789000  0.11015000  0.69029000  1.0
  O2-  O1  1  0.75789000  0.11015000  0.69029000  1.0
  O2-  O1  1  0.20993000  0.32549000  0.80971000  1.0
  O2-  O1  1  0.70993000  0.32549000  0.80971000  1.0
  O2-  O1  1  0.04007000  0.38985000  0.40563000  1.0
  O2-  O1  1  0.54007000  0.38985000  0.40563000  1.0
  O2-  O1  1  0.49211000  0.17451000  0.09437000  1.0
  O2-  O1  1  0.99211000  0.17451000  0.09437000  1.0
  O2-  O1  1  0.08725500  0.69029000  0.58014000  1.0
  O2-  O1  1  0.58725500  0.69029000  0.58014000  1.0
  O2-  O1  1  0.19492500  0.80971000  0.48422000  1.0
  O2-  O1  1  0.69492500  0.80971000  0.48422000  1.0
  O2-  O1  1  0.16274500  0.40563000  0.01578000  1.0
  O2-  O1  1  0.66274500  0.40563000  0.01578000  1.0
  O2-  O1  1  0.05507500  0.09437000  0.91986000  1.0
  O2-  O1  1  0.55507500  0.09437000  0.91986000  1.0
  O2-  O1  1  0.29718500  0.41986000  0.11015000  1.0
  O2-  O1  1  0.79718500  0.41986000  0.11015000  1.0
  O2-  O1  1  0.45281500  0.51578000  0.32549000  1.0
  O2-  O1  1  0.95281500  0.51578000  0.32549000  1.0
  O2-  O1  1  0.15485500  0.98422000  0.38985000  1.0
  O2-  O1  1  0.65485500  0.98422000  0.38985000  1.0
  O2-  O1  1  0.09514500  0.08014000  0.17451000  1.0
  O2-  O1  1  0.59514500  0.08014000  0.17451000  1.0
  O2-  O1  1  0.24211000  0.88985000  0.30971000  1.0
  O2-  O1  1  0.74211000  0.88985000  0.30971000  1.0
  O2-  O1  1  0.29007000  0.67451000  0.19029000  1.0
  O2-  O1  1  0.79007000  0.67451000  0.19029000  1.0
  O2-  O1  1  0.45993000  0.61015000  0.59437000  1.0
  O2-  O1  1  0.95993000  0.61015000  0.59437000  1.0
  O2-  O1  1  0.00789000  0.82549000  0.90563000  1.0
  O2-  O1  1  0.50789000  0.82549000  0.90563000  1.0
