# generated using pymatgen
data_LiAlO2
_symmetry_space_group_name_H-M   'P 1'
_cell_length_a   7.77320000
_cell_length_b   23.31960000
_cell_length_c   9.95504792
_cell_angle_alpha   112.98032416
_cell_angle_beta   112.98032416
_cell_angle_gamma   90.00000000
_symmetry_Int_Tables_number   1
_chemical_formula_structural   LiAlO2
_chemical_formula_sum   'Li48 Al48 O96'
_cell_volume   1504.54181864
_cell_formula_units_Z   48
loop_
 _symmetry_equiv_pos_site_id
 _symmetry_equiv_pos_as_xyz
  1  'x, y, z'
loop_
 _atom_type_symbol
 _atom_type_oxidation_number
  Li+  1.0
  Al3+  3.0
  O2-  -2.0
loop_
 _atom_site_type_symbol
 _atom_site_label
 _atom_site_symmetry_multiplicity
 _atom_site_fract_x
 _atom_site_fract_y
 _atom_site_fract_z
 _atom_site_occupancy
  Li+  Li0  1  0.43750000  0.02083333  0.37500000  1.0
  Li+  Li0  1  0.43750000  0.35416667  0.37500000  1.0
  Li+  Li0  1  0.43750000  0.68750000  0.37500000  1.0
  Li+  Li1  1  0.93750000  0.02083333  0.87500000  1.0
  Li+  Li1  1  0.93750000  0.35416667  0.87500000  1.0
  Li+  Li1  1  0.93750000  0.68750000  0.87500000  1.0
  Li+  Li2  1  0.93750000  0.18750000  0.87500000  1.0
  Li+  Li2  1  0.93750000  0.52083333  0.87500000  1.0
  Li+  Li2  1  0.93750000  0.85416667  0.87500000  1.0
  Li+  Li3  1  0.31250000  0.06250000  0.12500000  1.0
  Li+  Li3  1  0.31250000  0.39583333  0.12500000  1.0
  Li+  Li3  1  0.31250000  0.72916667  0.12500000  1.0
  Li+  Li4  1  0.31250000  0.06250000  0.62500000  1.0
  Li+  Li4  1  0.31250000  0.39583333  0.62500000  1.0
  Li+  Li4  1  0.31250000  0.72916667  0.62500000  1.0
  Li+  Li5  1  0.31250000  0.22916667  0.12500000  1.0
  Li+  Li5  1  0.31250000  0.56250000  0.12500000  1.0
  Li+  Li5  1  0.31250000  0.89583333  0.12500000  1.0
  Li+  Li6  1  0.31250000  0.22916667  0.62500000  1.0
  Li+  Li6  1  0.31250000  0.56250000  0.62500000  1.0
  Li+  Li6  1  0.31250000  0.89583333  0.62500000  1.0
  Li+  Li7  1  0.81250000  0.06250000  0.12500000  1.0
  Li+  Li7  1  0.81250000  0.39583333  0.12500000  1.0
  Li+  Li7  1  0.81250000  0.72916667  0.12500000  1.0
  Li+  Li8  1  0.81250000  0.22916667  0.12500000  1.0
  Li+  Li8  1  0.81250000  0.56250000  0.12500000  1.0
  Li+  Li8  1  0.81250000  0.89583333  0.12500000  1.0
  Li+  Li9  1  0.81250000  0.22916667  0.62500000  1.0
  Li+  Li9  1  0.81250000  0.56250000  0.62500000  1.0
  Li+  Li9  1  0.81250000  0.89583333  0.62500000  1.0
  Li+  Li10  1  0.18750000  0.10416667  0.37500000  1.0
  Li+  Li10  1  0.18750000  0.43750000  0.37500000  1.0
  Li+  Li10  1  0.18750000  0.77083333  0.37500000  1.0
  Li+  Li11  1  0.18750000  0.10416667  0.87500000  1.0
  Li+  Li11  1  0.18750000  0.43750000  0.87500000  1.0
  Li+  Li11  1  0.18750000  0.77083333  0.87500000  1.0
  Li+  Li12  1  0.18750000  0.27083333  0.37500000  1.0
  Li+  Li12  1  0.18750000  0.60416667  0.37500000  1.0
  Li+  Li12  1  0.18750000  0.93750000  0.37500000  1.0
  Li+  Li13  1  0.68750000  0.10416667  0.37500000  1.0
  Li+  Li13  1  0.68750000  0.43750000  0.37500000  1.0
  Li+  Li13  1  0.68750000  0.77083333  0.37500000  1.0
  Li+  Li14  1  0.68750000  0.27083333  0.37500000  1.0
  Li+  Li14  1  0.68750000  0.60416667  0.37500000  1.0
  Li+  Li14  1  0.68750000  0.93750000  0.37500000  1.0
  Li+  Li15  1  0.68750000  0.27083333  0.87500000  1.0
  Li+  Li15  1  0.68750000  0.60416667  0.87500000  1.0
  Li+  Li15  1  0.68750000  0.93750000  0.87500000  1.0
  Al3+  Al16  1  0.06250000  0.14583333  0.12500000  1.0
  Al3+  Al16  1  0.06250000  0.47916667  0.12500000  1.0
  Al3+  Al16  1  0.06250000  0.81250000  0.12500000  1.0
  Al3+  Al17  1  0.06250000  0.14583333  0.62500000  1.0
  Al3+  Al17  1  0.06250000  0.47916667  0.62500000  1.0
  Al3+  Al17  1  0.06250000  0.81250000  0.62500000  1.0
  Al3+  Al18  1  0.06250000  0.31250000  0.12500000  1.0
  Al3+  Al18  1  0.06250000  0.64583333  0.12500000  1.0
  Al3+  Al18  1  0.06250000  0.97916667  0.12500000  1.0
  Al3+  Al19  1  0.06250000  0.31250000  0.62500000  1.0
  Al3+  Al19  1  0.06250000  0.64583333  0.62500000  1.0
  Al3+  Al19  1  0.06250000  0.97916667  0.62500000  1.0
  Al3+  Al20  1  0.56250000  0.14583333  0.12500000  1.0
  Al3+  Al20  1  0.56250000  0.47916667  0.12500000  1.0
  Al3+  Al20  1  0.56250000  0.81250000  0.12500000  1.0
  Al3+  Al21  1  0.56250000  0.14583333  0.62500000  1.0
  Al3+  Al21  1  0.56250000  0.47916667  0.62500000  1.0
  Al3+  Al21  1  0.56250000  0.81250000  0.62500000  1.0
  Al3+  Al22  1  0.56250000  0.31250000  0.12500000  1.0
  Al3+  Al22  1  0.56250000  0.64583333  0.12500000  1.0
  Al3+  Al22  1  0.56250000  0.97916667  0.12500000  1.0
  Al3+  Al23  1  0.56250000  0.31250000  0.62500000  1.0
  Al3+  Al23  1  0.56250000  0.64583333  0.62500000  1.0
  Al3+  Al23  1  0.56250000  0.97916667  0.62500000  1.0
  Al3+  Al24  1  0.43750000  0.02083333  0.87500000  1.0
  Al3+  Al24  1  0.43750000  0.35416667  0.87500000  1.0
  Al3+  Al24  1  0.43750000  0.68750000  0.87500000  1.0
  Al3+  Al25  1  0.43750000  0.18750000  0.37500000  1.0
  Al3+  Al25  1  0.43750000  0.52083333  0.37500000  1.0
  Al3+  Al25  1  0.43750000  0.85416667  0.37500000  1.0
  Al3+  Al26  1  0.43750000  0.18750000  0.87500000  1.0
  Al3+  Al26  1  0.43750000  0.52083333  0.87500000  1.0
  Al3+  Al26  1  0.43750000  0.85416667  0.87500000  1.0
  Al3+  Al27  1  0.93750000  0.02083333  0.37500000  1.0
  Al3+  Al27  1  0.93750000  0.35416667  0.37500000  1.0
  Al3+  Al27  1  0.93750000  0.68750000  0.37500000  1.0
  Al3+  Al28  1  0.93750000  0.18750000  0.37500000  1.0
  Al3+  Al28  1  0.93750000  0.52083333  0.37500000  1.0
  Al3+  Al28  1  0.93750000  0.85416667  0.37500000  1.0
  Al3+  Al29  1  0.81250000  0.06250000  0.62500000  1.0
  Al3+  Al29  1  0.81250000  0.39583333  0.62500000  1.0
  Al3+  Al29  1  0.81250000  0.72916667  0.62500000  1.0
  Al3+  Al30  1  0.18750000  0.27083333  0.87500000  1.0
  Al3+  Al30  1  0.18750000  0.60416667  0.87500000  1.0
  Al3+  Al30  1  0.18750000  0.93750000  0.87500000  1.0
  Al3+  Al31  1  0.68750000  0.10416667  0.87500000  1.0
  Al3+  Al31  1  0.68750000  0.43750000  0.87500000  1.0
  Al3+  Al31  1  0.68750000  0.77083333  0.87500000  1.0
  O2-  O1  1  0.45061500  0.10853833  0.40123000  1.0
  O2-  O1  1  0.45061500  0.44187167  0.40123000  1.0
  O2-  O1  1  0.45061500  0.77520500  0.40123000  1.0
  O2-  O1  1  0.45061500  0.10853833  0.90123000  1.0
  O2-  O1  1  0.45061500  0.44187167  0.90123000  1.0
  O2-  O1  1  0.45061500  0.77520500  0.90123000  1.0
  O2-  O1  1  0.45061500  0.27520500  0.40123000  1.0
  O2-  O1  1  0.45061500  0.60853833  0.40123000  1.0
  O2-  O1  1  0.45061500  0.94187167  0.40123000  1.0
  O2-  O1  1  0.45061500  0.27520500  0.90123000  1.0
  O2-  O1  1  0.45061500  0.60853833  0.90123000  1.0
  O2-  O1  1  0.45061500  0.94187167  0.90123000  1.0
  O2-  O1  1  0.95061500  0.10853833  0.40123000  1.0
  O2-  O1  1  0.95061500  0.44187167  0.40123000  1.0
  O2-  O1  1  0.95061500  0.77520500  0.40123000  1.0
  O2-  O1  1  0.95061500  0.10853833  0.90123000  1.0
  O2-  O1  1  0.95061500  0.44187167  0.90123000  1.0
  O2-  O1  1  0.95061500  0.77520500  0.90123000  1.0
  O2-  O1  1  0.95061500  0.27520500  0.40123000  1.0
  O2-  O1  1  0.95061500  0.60853833  0.40123000  1.0
  O2-  O1  1  0.95061500  0.94187167  0.40123000  1.0
  O2-  O1  1  0.95061500  0.27520500  0.90123000  1.0
  O2-  O1  1  0.95061500  0.60853833  0.90123000  1.0
  O2-  O1  1  0.95061500  0.94187167  0.90123000  1.0
  O2-  O1  1  0.32561500  0.15020500  0.15123000  1.0
  O2-  O1  1  0.32561500  0.48353833  0.15123000  1.0
  O2-  O1  1  0.32561500  0.81687167  0.15123000  1.0
  O2-  O1  1  0.32561500  0.15020500  0.65123000  1.0
  O2-  O1  1  0.32561500  0.48353833  0.65123000  1.0
  O2-  O1  1  0.32561500  0.81687167  0.65123000  1.0
  O2-  O1  1  0.32561500  0.31687167  0.15123000  1.0
  O2-  O1  1  0.32561500  0.65020500  0.15123000  1.0
  O2-  O1  1  0.32561500  0.98353833  0.15123000  1.0
  O2-  O1  1  0.32561500  0.31687167  0.65123000  1.0
  O2-  O1  1  0.32561500  0.65020500  0.65123000  1.0
  O2-  O1  1  0.32561500  0.98353833  0.65123000  1.0
  O2-  O1  1  0.82561500  0.15020500  0.15123000  1.0
  O2-  O1  1  0.82561500  0.48353833  0.15123000  1.0
  O2-  O1  1  0.82561500  0.81687167  0.15123000  1.0
  O2-  O1  1  0.82561500  0.15020500  0.65123000  1.0
  O2-  O1  1  0.82561500  0.48353833  0.65123000  1.0
  O2-  O1  1  0.82561500  0.81687167  0.65123000  1.0
  O2-  O1  1  0.82561500  0.31687167  0.15123000  1.0
  O2-  O1  1  0.82561500  0.65020500  0.15123000  1.0
  O2-  O1  1  0.82561500  0.98353833  0.15123000  1.0
  O2-  O1  1  0.82561500  0.31687167  0.65123000  1.0
  O2-  O1  1  0.82561500  0.65020500  0.65123000  1.0
  O2-  O1  1  0.82561500  0.98353833  0.65123000  1.0
  O2-  O1  1  0.04938500  0.05812833  0.09877000  1.0
  O2-  O1  1  0.04938500  0.39146167  0.09877000  1.0
  O2-  O1  1  0.04938500  0.72479500  0.09877000  1.0
  O2-  O1  1  0.04938500  0.05812833  0.59877000  1.0
  O2-  O1  1  0.04938500  0.39146167  0.59877000  1.0
  O2-  O1  1  0.04938500  0.72479500  0.59877000  1.0
  O2-  O1  1  0.04938500  0.22479500  0.09877000  1.0
  O2-  O1  1  0.04938500  0.55812833  0.09877000  1.0
  O2-  O1  1  0.04938500  0.89146167  0.09877000  1.0
  O2-  O1  1  0.04938500  0.22479500  0.59877000  1.0
  O2-  O1  1  0.04938500  0.55812833  0.59877000  1.0
  O2-  O1  1  0.04938500  0.89146167  0.59877000  1.0
  O2-  O1  1  0.54938500  0.05812833  0.09877000  1.0
  O2-  O1  1  0.54938500  0.39146167  0.09877000  1.0
  O2-  O1  1  0.54938500  0.72479500  0.09877000  1.0
  O2-  O1  1  0.54938500  0.05812833  0.59877000  1.0
  O2-  O1  1  0.54938500  0.39146167  0.59877000  1.0
  O2-  O1  1  0.54938500  0.72479500  0.59877000  1.0
  O2-  O1  1  0.54938500  0.22479500  0.09877000  1.0
  O2-  O1  1  0.54938500  0.55812833  0.09877000  1.0
  O2-  O1  1  0.54938500  0.89146167  0.09877000  1.0
  O2-  O1  1  0.54938500  0.22479500  0.59877000  1.0
  O2-  O1  1  0.54938500  0.55812833  0.59877000  1.0
  O2-  O1  1  0.54938500  0.89146167  0.59877000  1.0
  O2-  O1  1  0.17438500  0.01646167  0.34877000  1.0
  O2-  O1  1  0.17438500  0.34979500  0.34877000  1.0
  O2-  O1  1  0.17438500  0.68312833  0.34877000  1.0
  O2-  O1  1  0.17438500  0.01646167  0.84877000  1.0
  O2-  O1  1  0.17438500  0.34979500  0.84877000  1.0
  O2-  O1  1  0.17438500  0.68312833  0.84877000  1.0
  O2-  O1  1  0.17438500  0.18312833  0.34877000  1.0
  O2-  O1  1  0.17438500  0.51646167  0.34877000  1.0
  O2-  O1  1  0.17438500  0.84979500  0.34877000  1.0
  O2-  O1  1  0.17438500  0.18312833  0.84877000  1.0
  O2-  O1  1  0.17438500  0.51646167  0.84877000  1.0
  O2-  O1  1  0.17438500  0.84979500  0.84877000  1.0
  O2-  O1  1  0.67438500  0.01646167  0.34877000  1.0
  O2-  O1  1  0.67438500  0.34979500  0.34877000  1.0
  O2-  O1  1  0.67438500  0.68312833  0.34877000  1.0
  O2-  O1  1  0.67438500  0.01646167  0.84877000  1.0
  O2-  O1  1  0.67438500  0.34979500  0.84877000  1.0
  O2-  O1  1  0.67438500  0.68312833  0.84877000  1.0
  O2-  O1  1  0.67438500  0.18312833  0.34877000  1.0
  O2-  O1  1  0.67438500  0.51646167  0.34877000  1.0
  O2-  O1  1  0.67438500  0.84979500  0.34877000  1.0
  O2-  O1  1  0.67438500  0.18312833  0.84877000  1.0
  O2-  O1  1  0.67438500  0.51646167  0.84877000  1.0
  O2-  O1  1  0.67438500  0.84979500  0.84877000  1.0
