# generated using pymatgen
data_LiGa(SeO3)2
_symmetry_space_group_name_H-M   'P 1'
_cell_length_a   18.18859032
_cell_length_b   18.18859032
_cell_length_c   9.09429516
_cell_angle_alpha   107.66507236
_cell_angle_beta   66.85275313
_cell_angle_gamma   72.33492764
_symmetry_Int_Tables_number   1
_chemical_formula_structural   LiGa(SeO3)2
_chemical_formula_sum   'Li16 Ga16 Se32 O96'
_cell_volume   2308.83660187
_cell_formula_units_Z   16
loop_
 _symmetry_equiv_pos_site_id
 _symmetry_equiv_pos_as_xyz
  1  'x, y, z'
loop_
 _atom_type_symbol
 _atom_type_oxidation_number
  Li+  1.0
  Ga3+  3.0
  Se4+  4.0
  O2-  -2.0
loop_
 _atom_site_type_symbol
 _atom_site_label
 _atom_site_symmetry_multiplicity
 _atom_site_fract_x
 _atom_site_fract_y
 _atom_site_fract_z
 _atom_site_occupancy
  Li+  Li0  1  0.34461400  0.59288600  0.37500000  1.0
  Li+  Li1  1  0.34461400  0.09288600  0.37500000  1.0
  Li+  Li2  1  0.84461400  0.59288600  0.37500000  1.0
  Li+  Li3  1  0.84989501  0.09529353  0.37444105  1.0
  Li+  Li4  1  0.31250000  0.84288600  0.31077200  1.0
  Li+  Li5  1  0.31250000  0.34288600  0.31077200  1.0
  Li+  Li6  1  0.81250000  0.84288600  0.31077200  1.0
  Li+  Li7  1  0.81250000  0.34288600  0.31077200  1.0
  Li+  Li8  1  0.28038600  0.90711400  0.87500000  1.0
  Li+  Li9  1  0.28038600  0.40711400  0.87500000  1.0
  Li+  Li10  1  0.78038600  0.90711400  0.87500000  1.0
  Li+  Li11  1  0.78038600  0.40711400  0.87500000  1.0
  Li+  Li12  1  0.06250000  0.65711400  0.43922800  1.0
  Li+  Li13  1  0.06250000  0.15711400  0.43922800  1.0
  Li+  Li14  1  0.56250000  0.65711400  0.43922800  1.0
  Li+  Li15  1  0.56250000  0.15711400  0.43922800  1.0
  Ga3+  Ga16  1  0.41866300  0.76883700  0.87500000  1.0
  Ga3+  Ga17  1  0.41866300  0.26883700  0.87500000  1.0
  Ga3+  Ga18  1  0.91866300  0.76883700  0.87500000  1.0
  Ga3+  Ga19  1  0.91866300  0.26883700  0.87500000  1.0
  Ga3+  Ga20  1  0.06250000  0.51883700  0.16267400  1.0
  Ga3+  Ga21  1  0.06250000  0.01883700  0.16267400  1.0
  Ga3+  Ga22  1  0.56267039  0.51870447  0.16030565  1.0
  Ga3+  Ga23  1  0.56250000  0.01883700  0.16267400  1.0
  Ga3+  Ga24  1  0.20633700  0.73116300  0.37500000  1.0
  Ga3+  Ga25  1  0.20633700  0.23116300  0.37500000  1.0
  Ga3+  Ga26  1  0.70782225  0.73368250  0.37175205  1.0
  Ga3+  Ga27  1  0.70633700  0.23116300  0.37500000  1.0
  Ga3+  Ga28  1  0.31558043  0.98083560  0.58540954  1.0
  Ga3+  Ga29  1  0.31021319  0.48288488  0.58329290  1.0
  Ga3+  Ga30  1  0.81345427  0.98026703  0.58677124  1.0
  Ga3+  Ga31  1  0.81250000  0.48116300  0.58732600  1.0
  Se4+  Se32  1  0.19711500  0.83587600  0.13455100  1.0
  Se4+  Se33  1  0.19711500  0.33587600  0.13455100  1.0
  Se4+  Se34  1  0.69711500  0.83587600  0.13455100  1.0
  Se4+  Se35  1  0.69711500  0.33587600  0.13455100  1.0
  Se4+  Se36  1  0.19227550  0.61060950  0.03720100  1.0
  Se4+  Se37  1  0.18944901  0.11486978  0.03801080  1.0
  Se4+  Se38  1  0.69227550  0.61060950  0.03720100  1.0
  Se4+  Se39  1  0.69227550  0.11060950  0.03720100  1.0
  Se4+  Se40  1  0.14312508  0.66455155  0.68184866  1.0
  Se4+  Se41  1  0.14360050  0.16412400  0.68401800  1.0
  Se4+  Se42  1  0.64242255  0.66294529  0.68130375  1.0
  Se4+  Se43  1  0.64360050  0.16412400  0.68401800  1.0
  Se4+  Se44  1  0.46700900  0.88939050  0.14423000  1.0
  Se4+  Se45  1  0.46700900  0.38939050  0.14423000  1.0
  Se4+  Se46  1  0.96579627  0.89040771  0.14000248  1.0
  Se4+  Se47  1  0.96700900  0.38939050  0.14423000  1.0
  Se4+  Se48  1  0.48139950  0.86060950  0.61544900  1.0
  Se4+  Se49  1  0.48139950  0.36060950  0.61544900  1.0
  Se4+  Se50  1  0.97918775  0.86374009  0.61564328  1.0
  Se4+  Se51  1  0.98139950  0.36060950  0.61544900  1.0
  Se4+  Se52  1  0.15799100  0.91412400  0.71279900  1.0
  Se4+  Se53  1  0.15799100  0.41412400  0.71279900  1.0
  Se4+  Se54  1  0.65799100  0.91412400  0.71279900  1.0
  Se4+  Se55  1  0.65799100  0.41412400  0.71279900  1.0
  Se4+  Se56  1  0.42788500  0.63939050  0.06598200  1.0
  Se4+  Se57  1  0.42788500  0.13939050  0.06598200  1.0
  Se4+  Se58  1  0.92435292  0.64191823  0.06295721  1.0
  Se4+  Se59  1  0.92923582  0.13790600  0.06161331  1.0
  Se4+  Se60  1  0.43272450  0.58587600  0.60577000  1.0
  Se4+  Se61  1  0.43272450  0.08587600  0.60577000  1.0
  Se4+  Se62  1  0.93272450  0.58587600  0.60577000  1.0
  Se4+  Se63  1  0.93454506  0.08322177  0.60565701  1.0
  O2-  O64  1  0.28487900  0.86048850  0.04770100  1.0
  O2-  O65  1  0.28487900  0.36048850  0.04770100  1.0
  O2-  O66  1  0.78487900  0.86048850  0.04770100  1.0
  O2-  O67  1  0.78487900  0.36048850  0.04770100  1.0
  O2-  O68  1  0.15016331  0.56231776  0.17189541  1.0
  O2-  O69  1  0.14885050  0.06627050  0.17327600  1.0
  O2-  O70  1  0.64885050  0.56627050  0.17327600  1.0
  O2-  O71  1  0.64885050  0.06627050  0.17327600  1.0
  O2-  O72  1  0.21163800  0.63951150  0.45926500  1.0
  O2-  O73  1  0.21555841  0.13786630  0.46324123  1.0
  O2-  O74  1  0.71163800  0.63951150  0.45926500  1.0
  O2-  O75  1  0.71163800  0.13951150  0.45926500  1.0
  O2-  O76  1  0.34966812  0.92815206  0.31693496  1.0
  O2-  O77  1  0.35463250  0.43372950  0.31975800  1.0
  O2-  O78  1  0.85557797  0.93608814  0.31762889  1.0
  O2-  O79  1  0.85463250  0.43372950  0.31975800  1.0
  O2-  O80  1  0.41336200  0.81627050  0.70229900  1.0
  O2-  O81  1  0.41336200  0.31627050  0.70229900  1.0
  O2-  O82  1  0.91336200  0.81627050  0.70229900  1.0
  O2-  O83  1  0.91362802  0.31774539  0.70032539  1.0
  O2-  O84  1  0.27263386  0.88839723  0.57310291  1.0
  O2-  O85  1  0.27036750  0.38951150  0.57672400  1.0
  O2-  O86  1  0.77036750  0.88951150  0.57672400  1.0
  O2-  O87  1  0.77036750  0.38951150  0.57672400  1.0
  O2-  O88  1  0.34012100  0.68372950  0.29073500  1.0
  O2-  O89  1  0.34012100  0.18372950  0.29073500  1.0
  O2-  O90  1  0.84012100  0.68372950  0.29073500  1.0
  O2-  O91  1  0.84012100  0.18372950  0.29073500  1.0
  O2-  O92  1  0.47614950  0.61048850  0.43024200  1.0
  O2-  O93  1  0.47614950  0.11048850  0.43024200  1.0
  O2-  O94  1  0.97614950  0.61048850  0.43024200  1.0
  O2-  O95  1  0.97614950  0.11048850  0.43024200  1.0
  O2-  O96  1  0.18653198  0.55954205  0.66613560  1.0
  O2-  O97  1  0.18625550  0.06122050  0.66505000  1.0
  O2-  O98  1  0.68625550  0.56122050  0.66505000  1.0
  O2-  O99  1  0.68625550  0.06122050  0.66505000  1.0
  O2-  O100  1  0.45752500  0.85621950  0.95739100  1.0
  O2-  O101  1  0.45752500  0.35621950  0.95739100  1.0
  O2-  O102  1  0.95752500  0.85621950  0.95739100  1.0
  O2-  O103  1  0.95626348  0.35657790  0.95506846  1.0
  O2-  O104  1  0.10244134  0.93568707  0.25636837  1.0
  O2-  O105  1  0.10369550  0.43877950  0.25504800  1.0
  O2-  O106  1  0.60369550  0.93877950  0.25504800  1.0
  O2-  O107  1  0.60369550  0.43877950  0.25504800  1.0
  O2-  O108  1  0.25252400  0.64378050  0.12251100  1.0
  O2-  O109  1  0.25580128  0.14898870  0.12271550  1.0
  O2-  O110  1  0.75252400  0.64378050  0.12251100  1.0
  O2-  O111  1  0.75252400  0.14378050  0.12251100  1.0
  O2-  O112  1  0.02130450  0.60621950  0.08495000  1.0
  O2-  O113  1  0.02130450  0.10621950  0.08495000  1.0
  O2-  O114  1  0.52130450  0.60621950  0.08495000  1.0
  O2-  O115  1  0.52038689  0.11348298  0.08514640  1.0
  O2-  O116  1  0.37247600  0.68877950  0.79260900  1.0
  O2-  O117  1  0.37690308  0.18917562  0.79605517  1.0
  O2-  O118  1  0.87247600  0.68877950  0.79260900  1.0
  O2-  O119  1  0.87617356  0.19059734  0.79588118  1.0
  O2-  O120  1  0.43874450  0.89378050  0.49495200  1.0
  O2-  O121  1  0.44194812  0.39624570  0.49412529  1.0
  O2-  O122  1  0.93928284  0.89533453  0.49565525  1.0
  O2-  O123  1  0.93874450  0.39378050  0.49495200  1.0
  O2-  O124  1  0.16747500  0.81122050  0.62748900  1.0
  O2-  O125  1  0.16747500  0.31122050  0.62748900  1.0
  O2-  O126  1  0.66747500  0.81122050  0.62748900  1.0
  O2-  O127  1  0.66914854  0.31014754  0.62911229  1.0
  O2-  O128  1  0.07882050  0.76206150  0.43390400  1.0
  O2-  O129  1  0.07882050  0.26206150  0.43390400  1.0
  O2-  O130  1  0.57882050  0.76206150  0.43390400  1.0
  O2-  O131  1  0.57882050  0.26206150  0.43390400  1.0
  O2-  O132  1  0.34195200  0.57922750  0.59021900  1.0
  O2-  O133  1  0.34195200  0.07922750  0.59021900  1.0
  O2-  O134  1  0.84195200  0.57922750  0.59021900  1.0
  O2-  O135  1  0.84195200  0.07922750  0.59021900  1.0
  O2-  O136  1  0.42057449  0.73751782  0.06549564  1.0
  O2-  O137  1  0.41544062  0.24161352  0.06753285  1.0
  O2-  O138  1  0.91577497  0.73640846  0.06650785  1.0
  O2-  O139  1  0.92010950  0.23793850  0.06823600  1.0
  O2-  O140  1  0.15911800  0.92077250  0.90764100  1.0
  O2-  O141  1  0.15911800  0.42077250  0.90764100  1.0
  O2-  O142  1  0.66052182  0.91781060  0.90584775  1.0
  O2-  O143  1  0.65522278  0.42310128  0.90583414  1.0
  O2-  O144  1  0.20489050  0.82922750  0.31609600  1.0
  O2-  O145  1  0.20489050  0.32922750  0.31609600  1.0
  O2-  O146  1  0.70436248  0.83234601  0.31658358  1.0
  O2-  O147  1  0.70489050  0.32922750  0.31609600  1.0
  O2-  O148  1  0.46015129  0.98523570  0.16661512  1.0
  O2-  O149  1  0.46588200  0.48793850  0.15978100  1.0
  O2-  O150  1  0.96701288  0.98872486  0.15868745  1.0
  O2-  O151  1  0.96588200  0.48793850  0.15978100  1.0
  O2-  O152  1  0.04617950  0.67077250  0.68176400  1.0
  O2-  O153  1  0.04617950  0.17077250  0.68176400  1.0
  O2-  O154  1  0.54617950  0.67077250  0.68176400  1.0
  O2-  O155  1  0.54062240  0.17391030  0.68206884  1.0
  O2-  O156  1  0.28492222  0.51194479  0.84271674  1.0
  O2-  O157  1  0.28304800  0.01206150  0.84235900  1.0
  O2-  O158  1  0.78304800  0.51206150  0.84235900  1.0
  O2-  O159  1  0.78304800  0.01206150  0.84235900  1.0
