# generated using pymatgen
data_LiGa(SeO3)2
_symmetry_space_group_name_H-M   'P 1'
_cell_length_a   9.04324873
_cell_length_b   18.08649746
_cell_length_c   18.08649746
_cell_angle_alpha   72.33492764
_cell_angle_beta   72.33492764
_cell_angle_gamma   113.14724687
_symmetry_Int_Tables_number   1
_chemical_formula_structural   LiGa(SeO3)2
_chemical_formula_sum   'Li16 Ga16 Se32 O96'
_cell_volume   2270.17580513
_cell_formula_units_Z   16
loop_
 _symmetry_equiv_pos_site_id
 _symmetry_equiv_pos_as_xyz
  1  'x, y, z'
loop_
 _atom_type_symbol
 _atom_type_oxidation_number
  Li+  1.0
  Ga3+  3.0
  Se4+  4.0
  O2-  -2.0
loop_
 _atom_site_type_symbol
 _atom_site_label
 _atom_site_symmetry_multiplicity
 _atom_site_fract_x
 _atom_site_fract_y
 _atom_site_fract_z
 _atom_site_occupancy
  Li+  Li0  1  0.62500000  0.32205267  0.40711400  1.0
  Li+  Li1  1  0.62500000  0.32205267  0.90711400  1.0
  Li+  Li2  1  0.62500000  0.82205267  0.40711400  1.0
  Li+  Li3  1  0.62500000  0.82205267  0.90711400  1.0
  Li+  Li4  1  0.56077200  0.35416667  0.15711400  1.0
  Li+  Li5  1  0.56077200  0.35416667  0.65711400  1.0
  Li+  Li6  1  0.56077200  0.85416667  0.15711400  1.0
  Li+  Li7  1  0.56077200  0.85416667  0.65711400  1.0
  Li+  Li8  1  0.12500000  0.38628067  0.09288600  1.0
  Li+  Li9  1  0.12500000  0.38628067  0.59288600  1.0
  Li+  Li10  1  0.12500000  0.88628067  0.09288600  1.0
  Li+  Li11  1  0.12500000  0.88628067  0.59288600  1.0
  Li+  Li12  1  0.68922800  0.60416667  0.34288600  1.0
  Li+  Li13  1  0.68922800  0.60416667  0.84288600  1.0
  Li+  Li14  1  0.68922800  0.10416667  0.34288600  1.0
  Li+  Li15  1  0.68922800  0.10416667  0.84288600  1.0
  Ga3+  Ga16  1  0.12500000  0.24800367  0.23116300  1.0
  Ga3+  Ga17  1  0.12500000  0.24800367  0.73116300  1.0
  Ga3+  Ga18  1  0.12500000  0.74800367  0.23116300  1.0
  Ga3+  Ga19  1  0.12500000  0.74800367  0.73116300  1.0
  Ga3+  Ga20  1  0.41267400  0.60416667  0.48116300  1.0
  Ga3+  Ga21  1  0.41267400  0.60416667  0.98116300  1.0
  Ga3+  Ga22  1  0.41267400  0.10416667  0.48116300  1.0
  Ga3+  Ga23  1  0.41267400  0.10416667  0.98116300  1.0
  Ga3+  Ga24  1  0.62500000  0.46032967  0.26883700  1.0
  Ga3+  Ga25  1  0.62500000  0.46032967  0.76883700  1.0
  Ga3+  Ga26  1  0.62500000  0.96032967  0.26883700  1.0
  Ga3+  Ga27  1  0.62500000  0.96032967  0.76883700  1.0
  Ga3+  Ga28  1  0.83732600  0.35416667  0.01883700  1.0
  Ga3+  Ga29  1  0.83732600  0.35416667  0.51883700  1.0
  Ga3+  Ga30  1  0.83732600  0.85416667  0.01883700  1.0
  Ga3+  Ga31  1  0.83732600  0.85416667  0.51883700  1.0
  Se4+  Se32  1  0.38455100  0.46955167  0.16412400  1.0
  Se4+  Se33  1  0.38455100  0.46955167  0.66412400  1.0
  Se4+  Se34  1  0.38455100  0.96955167  0.16412400  1.0
  Se4+  Se35  1  0.38455100  0.96955167  0.66412400  1.0
  Se4+  Se36  1  0.28720100  0.47439117  0.38939050  1.0
  Se4+  Se37  1  0.28720100  0.47439117  0.88939050  1.0
  Se4+  Se38  1  0.28720100  0.97439117  0.38939050  1.0
  Se4+  Se39  1  0.28720100  0.97439117  0.88939050  1.0
  Se4+  Se40  1  0.93401800  0.52306617  0.33587600  1.0
  Se4+  Se41  1  0.93401800  0.52306617  0.83587600  1.0
  Se4+  Se42  1  0.93401800  0.02306617  0.33587600  1.0
  Se4+  Se43  1  0.93401800  0.02306617  0.83587600  1.0
  Se4+  Se44  1  0.39423000  0.19965767  0.11060950  1.0
  Se4+  Se45  1  0.39423000  0.19965767  0.61060950  1.0
  Se4+  Se46  1  0.39423000  0.69965767  0.11060950  1.0
  Se4+  Se47  1  0.39423000  0.69965767  0.61060950  1.0
  Se4+  Se48  1  0.86544900  0.18526717  0.13939050  1.0
  Se4+  Se49  1  0.86544900  0.18526717  0.63939050  1.0
  Se4+  Se50  1  0.86544900  0.68526717  0.13939050  1.0
  Se4+  Se51  1  0.86544900  0.68526717  0.63939050  1.0
  Se4+  Se52  1  0.96279900  0.50867567  0.08587600  1.0
  Se4+  Se53  1  0.96279900  0.50867567  0.58587600  1.0
  Se4+  Se54  1  0.96279900  0.00867567  0.08587600  1.0
  Se4+  Se55  1  0.96279900  0.00867567  0.58587600  1.0
  Se4+  Se56  1  0.31598200  0.23878167  0.36060950  1.0
  Se4+  Se57  1  0.31598200  0.23878167  0.86060950  1.0
  Se4+  Se58  1  0.31598200  0.73878167  0.36060950  1.0
  Se4+  Se59  1  0.31598200  0.73878167  0.86060950  1.0
  Se4+  Se60  1  0.85577000  0.23394217  0.41412400  1.0
  Se4+  Se61  1  0.85577000  0.23394217  0.91412400  1.0
  Se4+  Se62  1  0.85577000  0.73394217  0.41412400  1.0
  Se4+  Se63  1  0.85577000  0.73394217  0.91412400  1.0
  O2-  O64  1  0.29770100  0.38178767  0.13951150  1.0
  O2-  O65  1  0.29770100  0.38178767  0.63951150  1.0
  O2-  O66  1  0.29770100  0.88178767  0.13951150  1.0
  O2-  O67  1  0.29770100  0.88178767  0.63951150  1.0
  O2-  O68  1  0.42327600  0.51781617  0.43372950  1.0
  O2-  O69  1  0.42327600  0.51781617  0.93372950  1.0
  O2-  O70  1  0.42327600  0.01781617  0.43372950  1.0
  O2-  O71  1  0.42327600  0.01781617  0.93372950  1.0
  O2-  O72  1  0.70926500  0.45502867  0.36048850  1.0
  O2-  O73  1  0.70926500  0.45502867  0.86048850  1.0
  O2-  O74  1  0.70926500  0.95502867  0.36048850  1.0
  O2-  O75  1  0.70926500  0.95502867  0.86048850  1.0
  O2-  O76  1  0.56975800  0.31203417  0.06627050  1.0
  O2-  O77  1  0.56975800  0.31203417  0.56627050  1.0
  O2-  O78  1  0.56975800  0.81203417  0.06627050  1.0
  O2-  O79  1  0.56975800  0.81203417  0.56627050  1.0
  O2-  O80  1  0.95229900  0.25330467  0.18372950  1.0
  O2-  O81  1  0.95229900  0.25330467  0.68372950  1.0
  O2-  O82  1  0.95229900  0.75330467  0.18372950  1.0
  O2-  O83  1  0.95229900  0.75330467  0.68372950  1.0
  O2-  O84  1  0.82672400  0.39629917  0.11048850  1.0
  O2-  O85  1  0.82672400  0.39629917  0.61048850  1.0
  O2-  O86  1  0.82672400  0.89629917  0.11048850  1.0
  O2-  O87  1  0.82672400  0.89629917  0.61048850  1.0
  O2-  O88  1  0.54073500  0.32654567  0.31627050  1.0
  O2-  O89  1  0.54073500  0.32654567  0.81627050  1.0
  O2-  O90  1  0.54073500  0.82654567  0.31627050  1.0
  O2-  O91  1  0.54073500  0.82654567  0.81627050  1.0
  O2-  O92  1  0.68024200  0.19051717  0.38951150  1.0
  O2-  O93  1  0.68024200  0.19051717  0.88951150  1.0
  O2-  O94  1  0.68024200  0.69051717  0.38951150  1.0
  O2-  O95  1  0.68024200  0.69051717  0.88951150  1.0
  O2-  O96  1  0.91505000  0.48041117  0.43877950  1.0
  O2-  O97  1  0.91505000  0.48041117  0.93877950  1.0
  O2-  O98  1  0.91505000  0.98041117  0.43877950  1.0
  O2-  O99  1  0.91505000  0.98041117  0.93877950  1.0
  O2-  O100  1  0.20739100  0.20914167  0.14378050  1.0
  O2-  O101  1  0.20739100  0.20914167  0.64378050  1.0
  O2-  O102  1  0.20739100  0.70914167  0.14378050  1.0
  O2-  O103  1  0.20739100  0.70914167  0.64378050  1.0
  O2-  O104  1  0.50504800  0.56297117  0.06122050  1.0
  O2-  O105  1  0.50504800  0.56297117  0.56122050  1.0
  O2-  O106  1  0.50504800  0.06297117  0.06122050  1.0
  O2-  O107  1  0.50504800  0.06297117  0.56122050  1.0
  O2-  O108  1  0.37251100  0.41414267  0.35621950  1.0
  O2-  O109  1  0.37251100  0.41414267  0.85621950  1.0
  O2-  O110  1  0.37251100  0.91414267  0.35621950  1.0
  O2-  O111  1  0.37251100  0.91414267  0.85621950  1.0
  O2-  O112  1  0.33495000  0.64536217  0.39378050  1.0
  O2-  O113  1  0.33495000  0.64536217  0.89378050  1.0
  O2-  O114  1  0.33495000  0.14536217  0.39378050  1.0
  O2-  O115  1  0.33495000  0.14536217  0.89378050  1.0
  O2-  O116  1  0.04260900  0.29419067  0.31122050  1.0
  O2-  O117  1  0.04260900  0.29419067  0.81122050  1.0
  O2-  O118  1  0.04260900  0.79419067  0.31122050  1.0
  O2-  O119  1  0.04260900  0.79419067  0.81122050  1.0
  O2-  O120  1  0.74495200  0.22792217  0.10621950  1.0
  O2-  O121  1  0.74495200  0.22792217  0.60621950  1.0
  O2-  O122  1  0.74495200  0.72792217  0.10621950  1.0
  O2-  O123  1  0.74495200  0.72792217  0.60621950  1.0
  O2-  O124  1  0.87748900  0.49919167  0.18877950  1.0
  O2-  O125  1  0.87748900  0.49919167  0.68877950  1.0
  O2-  O126  1  0.87748900  0.99919167  0.18877950  1.0
  O2-  O127  1  0.87748900  0.99919167  0.68877950  1.0
  O2-  O128  1  0.68390400  0.58784617  0.23793850  1.0
  O2-  O129  1  0.68390400  0.58784617  0.73793850  1.0
  O2-  O130  1  0.68390400  0.08784617  0.23793850  1.0
  O2-  O131  1  0.68390400  0.08784617  0.73793850  1.0
  O2-  O132  1  0.84021900  0.32471467  0.42077250  1.0
  O2-  O133  1  0.84021900  0.32471467  0.92077250  1.0
  O2-  O134  1  0.84021900  0.82471467  0.42077250  1.0
  O2-  O135  1  0.84021900  0.82471467  0.92077250  1.0
  O2-  O136  1  0.31823600  0.24655717  0.26206150  1.0
  O2-  O137  1  0.31823600  0.24655717  0.76206150  1.0
  O2-  O138  1  0.31823600  0.74655717  0.26206150  1.0
  O2-  O139  1  0.31823600  0.74655717  0.76206150  1.0
  O2-  O140  1  0.15764100  0.50754867  0.07922750  1.0
  O2-  O141  1  0.15764100  0.50754867  0.57922750  1.0
  O2-  O142  1  0.15764100  0.00754867  0.07922750  1.0
  O2-  O143  1  0.15764100  0.00754867  0.57922750  1.0
  O2-  O144  1  0.56609600  0.46177617  0.17077250  1.0
  O2-  O145  1  0.56609600  0.46177617  0.67077250  1.0
  O2-  O146  1  0.56609600  0.96177617  0.17077250  1.0
  O2-  O147  1  0.56609600  0.96177617  0.67077250  1.0
  O2-  O148  1  0.40978100  0.20078467  0.01206150  1.0
  O2-  O149  1  0.40978100  0.20078467  0.51206150  1.0
  O2-  O150  1  0.40978100  0.70078467  0.01206150  1.0
  O2-  O151  1  0.40978100  0.70078467  0.51206150  1.0
  O2-  O152  1  0.93176400  0.62048717  0.32922750  1.0
  O2-  O153  1  0.93176400  0.62048717  0.82922750  1.0
  O2-  O154  1  0.93176400  0.12048717  0.32922750  1.0
  O2-  O155  1  0.93176400  0.12048717  0.82922750  1.0
  O2-  O156  1  0.09235900  0.38361867  0.48793850  1.0
  O2-  O157  1  0.09235900  0.38361867  0.98793850  1.0
  O2-  O158  1  0.09235900  0.88361867  0.48793850  1.0
  O2-  O159  1  0.09235900  0.88361867  0.98793850  1.0
