# generated using pymatgen
data_LiGa(SeO3)2
_symmetry_space_group_name_H-M   'P 1'
_cell_length_a   18.18859032
_cell_length_b   9.09429516
_cell_length_c   18.18859032
_cell_angle_alpha   107.66507236
_cell_angle_beta   107.66507236
_cell_angle_gamma   113.14724687
_symmetry_Int_Tables_number   1
_chemical_formula_structural   LiGa(SeO3)2
_chemical_formula_sum   'Li16 Ga16 Se32 O96'
_cell_volume   2308.83660187
_cell_formula_units_Z   16
loop_
 _symmetry_equiv_pos_site_id
 _symmetry_equiv_pos_as_xyz
  1  'x, y, z'
loop_
 _atom_type_symbol
 _atom_type_oxidation_number
  Li+  1.0
  Ga3+  3.0
  Se4+  4.0
  O2-  -2.0
loop_
 _atom_site_type_symbol
 _atom_site_label
 _atom_site_symmetry_multiplicity
 _atom_site_fract_x
 _atom_site_fract_y
 _atom_site_fract_z
 _atom_site_occupancy
  Li+  Li0  1  0.34461400  0.37500000  0.40711400  1.0
  Li+  Li0  1  0.34461400  0.37500000  0.90711400  1.0
  Li+  Li0  1  0.84461400  0.37500000  0.40711400  1.0
  Li+  Li0  1  0.84461400  0.37500000  0.90711400  1.0
  Li+  Li0  1  0.31250000  0.43922800  0.15711400  1.0
  Li+  Li0  1  0.31250000  0.43922800  0.65711400  1.0
  Li+  Li0  1  0.81250000  0.43922800  0.15711400  1.0
  Li+  Li0  1  0.81250000  0.43922800  0.65711400  1.0
  Li+  Li0  1  0.28038600  0.87500000  0.09288600  1.0
  Li+  Li0  1  0.28038600  0.87500000  0.59288600  1.0
  Li+  Li0  1  0.78038600  0.87500000  0.09288600  1.0
  Li+  Li0  1  0.78038600  0.87500000  0.59288600  1.0
  Li+  Li0  1  0.06250000  0.31077200  0.34288600  1.0
  Li+  Li0  1  0.06250000  0.31077200  0.84288600  1.0
  Li+  Li0  1  0.56250000  0.31077200  0.34288600  1.0
  Li+  Li0  1  0.56250000  0.31077200  0.84288600  1.0
  Ga3+  Ga1  1  0.41866300  0.87500000  0.23116300  1.0
  Ga3+  Ga1  1  0.41866300  0.87500000  0.73116300  1.0
  Ga3+  Ga1  1  0.91866300  0.87500000  0.23116300  1.0
  Ga3+  Ga1  1  0.91866300  0.87500000  0.73116300  1.0
  Ga3+  Ga1  1  0.06250000  0.58732600  0.48116300  1.0
  Ga3+  Ga1  1  0.06250000  0.58732600  0.98116300  1.0
  Ga3+  Ga1  1  0.56250000  0.58732600  0.48116300  1.0
  Ga3+  Ga1  1  0.56250000  0.58732600  0.98116300  1.0
  Ga3+  Ga1  1  0.20633700  0.37500000  0.26883700  1.0
  Ga3+  Ga1  1  0.20633700  0.37500000  0.76883700  1.0
  Ga3+  Ga1  1  0.70633700  0.37500000  0.26883700  1.0
  Ga3+  Ga1  1  0.70633700  0.37500000  0.76883700  1.0
  Ga3+  Ga1  1  0.31250000  0.16267400  0.01883700  1.0
  Ga3+  Ga1  1  0.31250000  0.16267400  0.51883700  1.0
  Ga3+  Ga1  1  0.81250000  0.16267400  0.01883700  1.0
  Ga3+  Ga1  1  0.81250000  0.16267400  0.51883700  1.0
  Se4+  Se2  1  0.19711500  0.61544900  0.16412400  1.0
  Se4+  Se2  1  0.19711500  0.61544900  0.66412400  1.0
  Se4+  Se2  1  0.69711500  0.61544900  0.16412400  1.0
  Se4+  Se2  1  0.69711500  0.61544900  0.66412400  1.0
  Se4+  Se2  1  0.19227550  0.71279900  0.38939050  1.0
  Se4+  Se2  1  0.19227550  0.71279900  0.88939050  1.0
  Se4+  Se2  1  0.69227550  0.71279900  0.38939050  1.0
  Se4+  Se2  1  0.69227550  0.71279900  0.88939050  1.0
  Se4+  Se2  1  0.14360050  0.06598200  0.33587600  1.0
  Se4+  Se2  1  0.14360050  0.06598200  0.83587600  1.0
  Se4+  Se2  1  0.64360050  0.06598200  0.33587600  1.0
  Se4+  Se2  1  0.64360050  0.06598200  0.83587600  1.0
  Se4+  Se2  1  0.46700900  0.60577000  0.11060950  1.0
  Se4+  Se2  1  0.46700900  0.60577000  0.61060950  1.0
  Se4+  Se2  1  0.96700900  0.60577000  0.11060950  1.0
  Se4+  Se2  1  0.96700900  0.60577000  0.61060950  1.0
  Se4+  Se2  1  0.48139950  0.13455100  0.13939050  1.0
  Se4+  Se2  1  0.48139950  0.13455100  0.63939050  1.0
  Se4+  Se2  1  0.98139950  0.13455100  0.13939050  1.0
  Se4+  Se2  1  0.98139950  0.13455100  0.63939050  1.0
  Se4+  Se2  1  0.15799100  0.03720100  0.08587600  1.0
  Se4+  Se2  1  0.15799100  0.03720100  0.58587600  1.0
  Se4+  Se2  1  0.65799100  0.03720100  0.08587600  1.0
  Se4+  Se2  1  0.65799100  0.03720100  0.58587600  1.0
  Se4+  Se2  1  0.42788500  0.68401800  0.36060950  1.0
  Se4+  Se2  1  0.42788500  0.68401800  0.86060950  1.0
  Se4+  Se2  1  0.92788500  0.68401800  0.36060950  1.0
  Se4+  Se2  1  0.92788500  0.68401800  0.86060950  1.0
  Se4+  Se2  1  0.43272450  0.14423000  0.41412400  1.0
  Se4+  Se2  1  0.43272450  0.14423000  0.91412400  1.0
  Se4+  Se2  1  0.93272450  0.14423000  0.41412400  1.0
  Se4+  Se2  1  0.93272450  0.14423000  0.91412400  1.0
  O2-  O3  1  0.28487900  0.70229900  0.13951150  1.0
  O2-  O3  1  0.28487900  0.70229900  0.63951150  1.0
  O2-  O3  1  0.78487900  0.70229900  0.13951150  1.0
  O2-  O3  1  0.78487900  0.70229900  0.63951150  1.0
  O2-  O3  1  0.14885050  0.57672400  0.43372950  1.0
  O2-  O3  1  0.14885050  0.57672400  0.93372950  1.0
  O2-  O3  1  0.64885050  0.57672400  0.43372950  1.0
  O2-  O3  1  0.64885050  0.57672400  0.93372950  1.0
  O2-  O3  1  0.21163800  0.29073500  0.36048850  1.0
  O2-  O3  1  0.21163800  0.29073500  0.86048850  1.0
  O2-  O3  1  0.71163800  0.29073500  0.36048850  1.0
  O2-  O3  1  0.71163800  0.29073500  0.86048850  1.0
  O2-  O3  1  0.35463250  0.43024200  0.06627050  1.0
  O2-  O3  1  0.35463250  0.43024200  0.56627050  1.0
  O2-  O3  1  0.85463250  0.43024200  0.06627050  1.0
  O2-  O3  1  0.85463250  0.43024200  0.56627050  1.0
  O2-  O3  1  0.41336200  0.04770100  0.18372950  1.0
  O2-  O3  1  0.41336200  0.04770100  0.68372950  1.0
  O2-  O3  1  0.91336200  0.04770100  0.18372950  1.0
  O2-  O3  1  0.91336200  0.04770100  0.68372950  1.0
  O2-  O3  1  0.27036750  0.17327600  0.11048850  1.0
  O2-  O3  1  0.27036750  0.17327600  0.61048850  1.0
  O2-  O3  1  0.77036750  0.17327600  0.11048850  1.0
  O2-  O3  1  0.77036750  0.17327600  0.61048850  1.0
  O2-  O3  1  0.34012100  0.45926500  0.31627050  1.0
  O2-  O3  1  0.34012100  0.45926500  0.81627050  1.0
  O2-  O3  1  0.84012100  0.45926500  0.31627050  1.0
  O2-  O3  1  0.84012100  0.45926500  0.81627050  1.0
  O2-  O3  1  0.47614950  0.31975800  0.38951150  1.0
  O2-  O3  1  0.47614950  0.31975800  0.88951150  1.0
  O2-  O3  1  0.97614950  0.31975800  0.38951150  1.0
  O2-  O3  1  0.97614950  0.31975800  0.88951150  1.0
  O2-  O4  1  0.18625550  0.08495000  0.43877950  1.0
  O2-  O4  1  0.18625550  0.08495000  0.93877950  1.0
  O2-  O4  1  0.68625550  0.08495000  0.43877950  1.0
  O2-  O4  1  0.68625550  0.08495000  0.93877950  1.0
  O2-  O4  1  0.45752500  0.79260900  0.14378050  1.0
  O2-  O4  1  0.45752500  0.79260900  0.64378050  1.0
  O2-  O4  1  0.95752500  0.79260900  0.14378050  1.0
  O2-  O4  1  0.95752500  0.79260900  0.64378050  1.0
  O2-  O4  1  0.10369550  0.49495200  0.06122050  1.0
  O2-  O4  1  0.10369550  0.49495200  0.56122050  1.0
  O2-  O4  1  0.60369550  0.49495200  0.06122050  1.0
  O2-  O4  1  0.60369550  0.49495200  0.56122050  1.0
  O2-  O4  1  0.25252400  0.62748900  0.35621950  1.0
  O2-  O4  1  0.25252400  0.62748900  0.85621950  1.0
  O2-  O4  1  0.75252400  0.62748900  0.35621950  1.0
  O2-  O4  1  0.75252400  0.62748900  0.85621950  1.0
  O2-  O4  1  0.02130450  0.66505000  0.39378050  1.0
  O2-  O4  1  0.02130450  0.66505000  0.89378050  1.0
  O2-  O4  1  0.52130450  0.66505000  0.39378050  1.0
  O2-  O4  1  0.52130450  0.66505000  0.89378050  1.0
  O2-  O4  1  0.37247600  0.95739100  0.31122050  1.0
  O2-  O4  1  0.37247600  0.95739100  0.81122050  1.0
  O2-  O4  1  0.87247600  0.95739100  0.31122050  1.0
  O2-  O4  1  0.87247600  0.95739100  0.81122050  1.0
  O2-  O4  1  0.43874450  0.25504800  0.10621950  1.0
  O2-  O4  1  0.43874450  0.25504800  0.60621950  1.0
  O2-  O4  1  0.93874450  0.25504800  0.10621950  1.0
  O2-  O4  1  0.93874450  0.25504800  0.60621950  1.0
  O2-  O4  1  0.16747500  0.12251100  0.18877950  1.0
  O2-  O4  1  0.16747500  0.12251100  0.68877950  1.0
  O2-  O4  1  0.66747500  0.12251100  0.18877950  1.0
  O2-  O4  1  0.66747500  0.12251100  0.68877950  1.0
  O2-  O5  1  0.07882050  0.31609600  0.23793850  1.0
  O2-  O5  1  0.07882050  0.31609600  0.73793850  1.0
  O2-  O5  1  0.57882050  0.31609600  0.23793850  1.0
  O2-  O5  1  0.57882050  0.31609600  0.73793850  1.0
  O2-  O5  1  0.34195200  0.15978100  0.42077250  1.0
  O2-  O5  1  0.34195200  0.15978100  0.92077250  1.0
  O2-  O5  1  0.84195200  0.15978100  0.42077250  1.0
  O2-  O5  1  0.84195200  0.15978100  0.92077250  1.0
  O2-  O5  1  0.42010950  0.68176400  0.26206150  1.0
  O2-  O5  1  0.42010950  0.68176400  0.76206150  1.0
  O2-  O5  1  0.92010950  0.68176400  0.26206150  1.0
  O2-  O5  1  0.92010950  0.68176400  0.76206150  1.0
  O2-  O5  1  0.15911800  0.84235900  0.07922750  1.0
  O2-  O5  1  0.15911800  0.84235900  0.57922750  1.0
  O2-  O5  1  0.65911800  0.84235900  0.07922750  1.0
  O2-  O5  1  0.65911800  0.84235900  0.57922750  1.0
  O2-  O5  1  0.20489050  0.43390400  0.17077250  1.0
  O2-  O5  1  0.20489050  0.43390400  0.67077250  1.0
  O2-  O5  1  0.70489050  0.43390400  0.17077250  1.0
  O2-  O5  1  0.70489050  0.43390400  0.67077250  1.0
  O2-  O5  1  0.46588200  0.59021900  0.01206150  1.0
  O2-  O5  1  0.46588200  0.59021900  0.51206150  1.0
  O2-  O5  1  0.96588200  0.59021900  0.01206150  1.0
  O2-  O5  1  0.96588200  0.59021900  0.51206150  1.0
  O2-  O5  1  0.04617950  0.06823600  0.32922750  1.0
  O2-  O5  1  0.04617950  0.06823600  0.82922750  1.0
  O2-  O5  1  0.54617950  0.06823600  0.32922750  1.0
  O2-  O5  1  0.54617950  0.06823600  0.82922750  1.0
  O2-  O5  1  0.28304800  0.90764100  0.48793850  1.0
  O2-  O5  1  0.28304800  0.90764100  0.98793850  1.0
  O2-  O5  1  0.78304800  0.90764100  0.48793850  1.0
  O2-  O5  1  0.78304800  0.90764100  0.98793850  1.0
