# generated using pymatgen
data_Li2MnCl4
_symmetry_space_group_name_H-M   'P 1'
_cell_length_a   14.87909106
_cell_length_b   22.31863659
_cell_length_c   14.87909106
_cell_angle_alpha   120.00000000
_cell_angle_beta   120.00000000
_cell_angle_gamma   60.00000000
_symmetry_Int_Tables_number   1
_chemical_formula_structural   Li2MnCl4
_chemical_formula_sum   'Li48 Mn24 Cl96'
_cell_volume   3493.85973870
_cell_formula_units_Z   24
loop_
 _symmetry_equiv_pos_site_id
 _symmetry_equiv_pos_as_xyz
  1  'x, y, z'
loop_
 _atom_type_symbol
 _atom_type_oxidation_number
  Li+  1.0
  Mn2+  2.0
  Cl-  -1.0
loop_
 _atom_site_type_symbol
 _atom_site_label
 _atom_site_symmetry_multiplicity
 _atom_site_fract_x
 _atom_site_fract_y
 _atom_site_fract_z
 _atom_site_occupancy
  Li+  Li0  1  0.93750000  0.62500000  0.06250000  1.0
  Li+  Li1  1  0.93750000  0.29166667  0.06250000  1.0
  Li+  Li2  1  0.93750000  0.95833333  0.06250000  1.0
  Li+  Li3  1  0.93750000  0.62500000  0.56250000  1.0
  Li+  Li4  1  0.93750000  0.29166667  0.56250000  1.0
  Li+  Li5  1  0.93750000  0.95833333  0.56250000  1.0
  Li+  Li6  1  0.43750000  0.62500000  0.06250000  1.0
  Li+  Li7  1  0.43750000  0.29166667  0.06250000  1.0
  Li+  Li8  1  0.43750000  0.95833333  0.06250000  1.0
  Li+  Li9  1  0.43750000  0.62500000  0.56250000  1.0
  Li+  Li10  1  0.43750000  0.29166667  0.56250000  1.0
  Li+  Li11  1  0.43750000  0.95833333  0.56250000  1.0
  Li+  Li12  1  0.56250000  0.37500000  0.43750000  1.0
  Li+  Li13  1  0.56250000  0.04166667  0.43750000  1.0
  Li+  Li14  1  0.56250000  0.70833333  0.43750000  1.0
  Li+  Li15  1  0.56250000  0.37500000  0.93750000  1.0
  Li+  Li16  1  0.56250000  0.04166667  0.93750000  1.0
  Li+  Li17  1  0.56250000  0.70833333  0.93750000  1.0
  Li+  Li18  1  0.06250000  0.37500000  0.43750000  1.0
  Li+  Li19  1  0.06250000  0.04166667  0.43750000  1.0
  Li+  Li20  1  0.06250000  0.70833333  0.43750000  1.0
  Li+  Li21  1  0.06250000  0.37500000  0.93750000  1.0
  Li+  Li22  1  0.06250000  0.04166667  0.93750000  1.0
  Li+  Li23  1  0.06250000  0.70833333  0.93750000  1.0
  Li+  Li24  1  0.75000000  0.50000000  0.50000000  1.0
  Li+  Li25  1  0.75000000  0.16666667  0.50000000  1.0
  Li+  Li26  1  0.75000000  0.83333333  0.50000000  1.0
  Li+  Li27  1  0.25000000  0.50000000  0.00000000  1.0
  Li+  Li28  1  0.25000000  0.16666667  0.00000000  1.0
  Li+  Li29  1  0.25000000  0.83333333  0.00000000  1.0
  Li+  Li30  1  0.25000000  0.50000000  0.50000000  1.0
  Li+  Li31  1  0.25000000  0.16666667  0.50000000  1.0
  Li+  Li32  1  0.25000000  0.83333333  0.50000000  1.0
  Li+  Li33  1  0.50000000  0.50000000  0.25000000  1.0
  Li+  Li34  1  0.50000000  0.16666667  0.25000000  1.0
  Li+  Li35  1  0.50000000  0.83333333  0.25000000  1.0
  Li+  Li36  1  0.50000000  0.50000000  0.75000000  1.0
  Li+  Li37  1  0.50000000  0.16666667  0.75000000  1.0
  Li+  Li38  1  0.50000000  0.83333333  0.75000000  1.0
  Li+  Li39  1  0.00000000  0.50000000  0.25000000  1.0
  Li+  Li40  1  0.00000000  0.16666667  0.25000000  1.0
  Li+  Li41  1  0.00000000  0.83333333  0.25000000  1.0
  Li+  Li42  1  0.00000000  0.50000000  0.75000000  1.0
  Li+  Li43  1  0.00000000  0.16666667  0.75000000  1.0
  Li+  Li44  1  0.00000000  0.83333333  0.75000000  1.0
  Li+  Li45  1  0.75000000  0.66666667  0.75000000  1.0
  Li+  Li46  1  0.75000000  0.33333333  0.75000000  1.0
  Li+  Li47  1  0.75000000  0.00000000  0.75000000  1.0
  Mn2+  Mn48  1  0.75000000  0.50000000  0.00000000  1.0
  Mn2+  Mn49  1  0.75000000  0.16666667  0.00000000  1.0
  Mn2+  Mn50  1  0.75000000  0.83333333  0.00000000  1.0
  Mn2+  Mn51  1  0.75000000  0.66666667  0.25000000  1.0
  Mn2+  Mn52  1  0.75000000  0.33333333  0.25000000  1.0
  Mn2+  Mn53  1  0.75000000  0.00000000  0.25000000  1.0
  Mn2+  Mn54  1  0.25000000  0.66666667  0.25000000  1.0
  Mn2+  Mn55  1  0.25000000  0.33333333  0.25000000  1.0
  Mn2+  Mn56  1  0.25000000  0.00000000  0.25000000  1.0
  Mn2+  Mn57  1  0.25000000  0.66666667  0.75000000  1.0
  Mn2+  Mn58  1  0.25000000  0.33333333  0.75000000  1.0
  Mn2+  Mn59  1  0.25000000  0.00000000  0.75000000  1.0
  Mn2+  Mn60  1  0.75000000  0.50000000  0.25000000  1.0
  Mn2+  Mn61  1  0.75000000  0.16666667  0.25000000  1.0
  Mn2+  Mn62  1  0.75000000  0.83333333  0.25000000  1.0
  Mn2+  Mn63  1  0.75000000  0.50000000  0.75000000  1.0
  Mn2+  Mn64  1  0.75000000  0.16666667  0.75000000  1.0
  Mn2+  Mn65  1  0.75000000  0.83333333  0.75000000  1.0
  Mn2+  Mn66  1  0.25000000  0.50000000  0.25000000  1.0
  Mn2+  Mn67  1  0.25000000  0.16666667  0.25000000  1.0
  Mn2+  Mn68  1  0.25000000  0.83333333  0.25000000  1.0
  Mn2+  Mn69  1  0.25000000  0.50000000  0.75000000  1.0
  Mn2+  Mn70  1  0.25000000  0.16666667  0.75000000  1.0
  Mn2+  Mn71  1  0.25000000  0.83333333  0.75000000  1.0
  Cl-  Cl72  1  0.87188500  0.58125667  0.36565500  1.0
  Cl-  Cl73  1  0.87188500  0.24792333  0.36565500  1.0
  Cl-  Cl74  1  0.87188500  0.91459000  0.36565500  1.0
  Cl-  Cl75  1  0.87188500  0.58125667  0.86565500  1.0
  Cl-  Cl76  1  0.87188500  0.24792333  0.86565500  1.0
  Cl-  Cl77  1  0.87188500  0.91459000  0.86565500  1.0
  Cl-  Cl78  1  0.37188500  0.58125667  0.36565500  1.0
  Cl-  Cl79  1  0.37188500  0.24792333  0.36565500  1.0
  Cl-  Cl80  1  0.37188500  0.91459000  0.36565500  1.0
  Cl-  Cl81  1  0.37188500  0.58125667  0.86565500  1.0
  Cl-  Cl82  1  0.37188500  0.24792333  0.86565500  1.0
  Cl-  Cl83  1  0.37188500  0.91459000  0.86565500  1.0
  Cl-  Cl84  1  0.63434500  0.58125667  0.12811500  1.0
  Cl-  Cl85  1  0.63434500  0.24792333  0.12811500  1.0
  Cl-  Cl86  1  0.63434500  0.91459000  0.12811500  1.0
  Cl-  Cl87  1  0.63434500  0.58125667  0.62811500  1.0
  Cl-  Cl88  1  0.63434500  0.24792333  0.62811500  1.0
  Cl-  Cl89  1  0.63434500  0.91459000  0.62811500  1.0
  Cl-  Cl90  1  0.13434500  0.58125667  0.12811500  1.0
  Cl-  Cl91  1  0.13434500  0.24792333  0.12811500  1.0
  Cl-  Cl92  1  0.13434500  0.91459000  0.12811500  1.0
  Cl-  Cl93  1  0.13434500  0.58125667  0.62811500  1.0
  Cl-  Cl94  1  0.13434500  0.24792333  0.62811500  1.0
  Cl-  Cl95  1  0.13434500  0.91459000  0.62811500  1.0
  Cl-  Cl96  1  0.87188500  0.42289667  0.12811500  1.0
  Cl-  Cl97  1  0.87188500  0.08956333  0.12811500  1.0
  Cl-  Cl98  1  0.87188500  0.75623000  0.12811500  1.0
  Cl-  Cl99  1  0.87188500  0.42289667  0.62811500  1.0
  Cl-  Cl100  1  0.87188500  0.08956333  0.62811500  1.0
  Cl-  Cl101  1  0.87188500  0.75623000  0.62811500  1.0
  Cl-  Cl102  1  0.37188500  0.42289667  0.12811500  1.0
  Cl-  Cl103  1  0.37188500  0.08956333  0.12811500  1.0
  Cl-  Cl104  1  0.37188500  0.75623000  0.12811500  1.0
  Cl-  Cl105  1  0.37188500  0.42289667  0.62811500  1.0
  Cl-  Cl106  1  0.37188500  0.08956333  0.62811500  1.0
  Cl-  Cl107  1  0.37188500  0.75623000  0.62811500  1.0
  Cl-  Cl108  1  0.87188500  0.58125667  0.12811500  1.0
  Cl-  Cl109  1  0.87188500  0.24792333  0.12811500  1.0
  Cl-  Cl110  1  0.87188500  0.91459000  0.12811500  1.0
  Cl-  Cl111  1  0.87188500  0.58125667  0.62811500  1.0
  Cl-  Cl112  1  0.87188500  0.24792333  0.62811500  1.0
  Cl-  Cl113  1  0.87188500  0.91459000  0.62811500  1.0
  Cl-  Cl114  1  0.37188500  0.58125667  0.12811500  1.0
  Cl-  Cl115  1  0.37188500  0.24792333  0.12811500  1.0
  Cl-  Cl116  1  0.37188500  0.91459000  0.12811500  1.0
  Cl-  Cl117  1  0.37188500  0.58125667  0.62811500  1.0
  Cl-  Cl118  1  0.37188500  0.24792333  0.62811500  1.0
  Cl-  Cl119  1  0.37188500  0.91459000  0.62811500  1.0
  Cl-  Cl120  1  0.62811500  0.41874333  0.13434500  1.0
  Cl-  Cl121  1  0.62811500  0.08541000  0.13434500  1.0
  Cl-  Cl122  1  0.62811500  0.75207667  0.13434500  1.0
  Cl-  Cl123  1  0.62811500  0.41874333  0.63434500  1.0
  Cl-  Cl124  1  0.62811500  0.08541000  0.63434500  1.0
  Cl-  Cl125  1  0.62811500  0.75207667  0.63434500  1.0
  Cl-  Cl126  1  0.12811500  0.41874333  0.13434500  1.0
  Cl-  Cl127  1  0.12811500  0.08541000  0.13434500  1.0
  Cl-  Cl128  1  0.12811500  0.75207667  0.13434500  1.0
  Cl-  Cl129  1  0.12811500  0.41874333  0.63434500  1.0
  Cl-  Cl130  1  0.12811500  0.08541000  0.63434500  1.0
  Cl-  Cl131  1  0.12811500  0.75207667  0.63434500  1.0
  Cl-  Cl132  1  0.86565500  0.41874333  0.37188500  1.0
  Cl-  Cl133  1  0.86565500  0.08541000  0.37188500  1.0
  Cl-  Cl134  1  0.86565500  0.75207667  0.37188500  1.0
  Cl-  Cl135  1  0.86565500  0.41874333  0.87188500  1.0
  Cl-  Cl136  1  0.86565500  0.08541000  0.87188500  1.0
  Cl-  Cl137  1  0.86565500  0.75207667  0.87188500  1.0
  Cl-  Cl138  1  0.36565500  0.41874333  0.37188500  1.0
  Cl-  Cl139  1  0.36565500  0.08541000  0.37188500  1.0
  Cl-  Cl140  1  0.36565500  0.75207667  0.37188500  1.0
  Cl-  Cl141  1  0.36565500  0.41874333  0.87188500  1.0
  Cl-  Cl142  1  0.36565500  0.08541000  0.87188500  1.0
  Cl-  Cl143  1  0.36565500  0.75207667  0.87188500  1.0
  Cl-  Cl144  1  0.62811500  0.57710333  0.37188500  1.0
  Cl-  Cl145  1  0.62811500  0.24377000  0.37188500  1.0
  Cl-  Cl146  1  0.62811500  0.91043667  0.37188500  1.0
  Cl-  Cl147  1  0.62811500  0.57710333  0.87188500  1.0
  Cl-  Cl148  1  0.62811500  0.24377000  0.87188500  1.0
  Cl-  Cl149  1  0.62811500  0.91043667  0.87188500  1.0
  Cl-  Cl150  1  0.12811500  0.57710333  0.37188500  1.0
  Cl-  Cl151  1  0.12811500  0.24377000  0.37188500  1.0
  Cl-  Cl152  1  0.12811500  0.91043667  0.37188500  1.0
  Cl-  Cl153  1  0.12811500  0.57710333  0.87188500  1.0
  Cl-  Cl154  1  0.12811500  0.24377000  0.87188500  1.0
  Cl-  Cl155  1  0.12811500  0.91043667  0.87188500  1.0
  Cl-  Cl156  1  0.62811500  0.41874333  0.37188500  1.0
  Cl-  Cl157  1  0.62811500  0.08541000  0.37188500  1.0
  Cl-  Cl158  1  0.62811500  0.75207667  0.37188500  1.0
  Cl-  Cl159  1  0.62811500  0.41874333  0.87188500  1.0
  Cl-  Cl160  1  0.62811500  0.08541000  0.87188500  1.0
  Cl-  Cl161  1  0.62811500  0.75207667  0.87188500  1.0
  Cl-  Cl162  1  0.12811500  0.41874333  0.37188500  1.0
  Cl-  Cl163  1  0.12811500  0.08541000  0.37188500  1.0
  Cl-  Cl164  1  0.12811500  0.75207667  0.37188500  1.0
  Cl-  Cl165  1  0.12811500  0.41874333  0.87188500  1.0
  Cl-  Cl166  1  0.12811500  0.08541000  0.87188500  1.0
  Cl-  Cl167  1  0.12811500  0.75207667  0.87188500  1.0
