# generated using pymatgen
data_Li2MnCl4
_symmetry_space_group_name_H-M   'P 1'
_cell_length_a   22.27959117
_cell_length_b   14.85306078
_cell_length_c   14.85306078
_cell_angle_alpha   60.00000000
_cell_angle_beta   60.00000000
_cell_angle_gamma   60.00000000
_symmetry_Int_Tables_number   1
_chemical_formula_structural   Li2MnCl4
_chemical_formula_sum   'Li48 Mn24 Cl96'
_cell_volume   3475.55476289
_cell_formula_units_Z   24
loop_
 _symmetry_equiv_pos_site_id
 _symmetry_equiv_pos_as_xyz
  1  'x, y, z'
loop_
 _atom_type_symbol
 _atom_type_oxidation_number
  Li+  1.0
  Mn2+  2.0
  Cl-  -1.0
loop_
 _atom_site_type_symbol
 _atom_site_label
 _atom_site_symmetry_multiplicity
 _atom_site_fract_x
 _atom_site_fract_y
 _atom_site_fract_z
 _atom_site_occupancy
  Li+  Li1  1  0.04166667  0.06250000  0.06250000  1.0
  Li+  Li1  1  0.37500000  0.06250000  0.06250000  1.0
  Li+  Li1  1  0.70833333  0.06250000  0.06250000  1.0
  Li+  Li1  1  0.04166667  0.06250000  0.56250000  1.0
  Li+  Li1  1  0.37500000  0.06250000  0.56250000  1.0
  Li+  Li1  1  0.70833333  0.06250000  0.56250000  1.0
  Li+  Li1  1  0.04166667  0.56250000  0.06250000  1.0
  Li+  Li1  1  0.37500000  0.56250000  0.06250000  1.0
  Li+  Li1  1  0.70833333  0.56250000  0.06250000  1.0
  Li+  Li1  1  0.04166667  0.56250000  0.56250000  1.0
  Li+  Li1  1  0.37500000  0.56250000  0.56250000  1.0
  Li+  Li1  1  0.70833333  0.56250000  0.56250000  1.0
  Li+  Li1  1  0.29166667  0.43750000  0.43750000  1.0
  Li+  Li1  1  0.62500000  0.43750000  0.43750000  1.0
  Li+  Li1  1  0.95833333  0.43750000  0.43750000  1.0
  Li+  Li1  1  0.29166667  0.43750000  0.93750000  1.0
  Li+  Li1  1  0.62500000  0.43750000  0.93750000  1.0
  Li+  Li1  1  0.95833333  0.43750000  0.93750000  1.0
  Li+  Li1  1  0.29166667  0.93750000  0.43750000  1.0
  Li+  Li1  1  0.62500000  0.93750000  0.43750000  1.0
  Li+  Li1  1  0.95833333  0.93750000  0.43750000  1.0
  Li+  Li1  1  0.29166667  0.93750000  0.93750000  1.0
  Li+  Li1  1  0.62500000  0.93750000  0.93750000  1.0
  Li+  Li1  1  0.95833333  0.93750000  0.93750000  1.0
  Li+  Li8  1  0.16666667  0.25000000  0.50000000  1.0
  Li+  Li8  1  0.50000000  0.25000000  0.50000000  1.0
  Li+  Li8  1  0.83333333  0.25000000  0.50000000  1.0
  Li+  Li9  1  0.16666667  0.75000000  0.00000000  1.0
  Li+  Li9  1  0.50000000  0.75000000  0.00000000  1.0
  Li+  Li9  1  0.83333333  0.75000000  0.00000000  1.0
  Li+  Li10  1  0.16666667  0.75000000  0.50000000  1.0
  Li+  Li10  1  0.50000000  0.75000000  0.50000000  1.0
  Li+  Li10  1  0.83333333  0.75000000  0.50000000  1.0
  Li+  Li11  1  0.16666667  0.50000000  0.25000000  1.0
  Li+  Li11  1  0.50000000  0.50000000  0.25000000  1.0
  Li+  Li11  1  0.83333333  0.50000000  0.25000000  1.0
  Li+  Li12  1  0.16666667  0.50000000  0.75000000  1.0
  Li+  Li12  1  0.50000000  0.50000000  0.75000000  1.0
  Li+  Li12  1  0.83333333  0.50000000  0.75000000  1.0
  Li+  Li13  1  0.16666667  0.00000000  0.25000000  1.0
  Li+  Li13  1  0.50000000  0.00000000  0.25000000  1.0
  Li+  Li13  1  0.83333333  0.00000000  0.25000000  1.0
  Li+  Li14  1  0.16666667  0.00000000  0.75000000  1.0
  Li+  Li14  1  0.50000000  0.00000000  0.75000000  1.0
  Li+  Li14  1  0.83333333  0.00000000  0.75000000  1.0
  Li+  Li15  1  0.00000000  0.25000000  0.75000000  1.0
  Li+  Li15  1  0.33333333  0.25000000  0.75000000  1.0
  Li+  Li15  1  0.66666667  0.25000000  0.75000000  1.0
  Mn2+  Mn16  1  0.16666667  0.25000000  0.00000000  1.0
  Mn2+  Mn16  1  0.50000000  0.25000000  0.00000000  1.0
  Mn2+  Mn16  1  0.83333333  0.25000000  0.00000000  1.0
  Mn2+  Mn17  1  0.00000000  0.25000000  0.25000000  1.0
  Mn2+  Mn17  1  0.33333333  0.25000000  0.25000000  1.0
  Mn2+  Mn17  1  0.66666667  0.25000000  0.25000000  1.0
  Mn2+  Mn18  1  0.00000000  0.75000000  0.25000000  1.0
  Mn2+  Mn18  1  0.33333333  0.75000000  0.25000000  1.0
  Mn2+  Mn18  1  0.66666667  0.75000000  0.25000000  1.0
  Mn2+  Mn19  1  0.00000000  0.75000000  0.75000000  1.0
  Mn2+  Mn19  1  0.33333333  0.75000000  0.75000000  1.0
  Mn2+  Mn19  1  0.66666667  0.75000000  0.75000000  1.0
  Mn2+  Mn20  1  0.16666667  0.25000000  0.25000000  1.0
  Mn2+  Mn20  1  0.50000000  0.25000000  0.25000000  1.0
  Mn2+  Mn20  1  0.83333333  0.25000000  0.25000000  1.0
  Mn2+  Mn21  1  0.16666667  0.25000000  0.75000000  1.0
  Mn2+  Mn21  1  0.50000000  0.25000000  0.75000000  1.0
  Mn2+  Mn21  1  0.83333333  0.25000000  0.75000000  1.0
  Mn2+  Mn22  1  0.16666667  0.75000000  0.25000000  1.0
  Mn2+  Mn22  1  0.50000000  0.75000000  0.25000000  1.0
  Mn2+  Mn22  1  0.83333333  0.75000000  0.25000000  1.0
  Mn2+  Mn23  1  0.16666667  0.75000000  0.75000000  1.0
  Mn2+  Mn23  1  0.50000000  0.75000000  0.75000000  1.0
  Mn2+  Mn23  1  0.83333333  0.75000000  0.75000000  1.0
  Cl-  Cl1  1  0.08541000  0.12811500  0.36565500  1.0
  Cl-  Cl1  1  0.41874333  0.12811500  0.36565500  1.0
  Cl-  Cl1  1  0.75207667  0.12811500  0.36565500  1.0
  Cl-  Cl1  1  0.08541000  0.12811500  0.86565500  1.0
  Cl-  Cl1  1  0.41874333  0.12811500  0.86565500  1.0
  Cl-  Cl1  1  0.75207667  0.12811500  0.86565500  1.0
  Cl-  Cl1  1  0.08541000  0.62811500  0.36565500  1.0
  Cl-  Cl1  1  0.41874333  0.62811500  0.36565500  1.0
  Cl-  Cl1  1  0.75207667  0.62811500  0.36565500  1.0
  Cl-  Cl1  1  0.08541000  0.62811500  0.86565500  1.0
  Cl-  Cl1  1  0.41874333  0.62811500  0.86565500  1.0
  Cl-  Cl1  1  0.75207667  0.62811500  0.86565500  1.0
  Cl-  Cl1  1  0.08541000  0.36565500  0.12811500  1.0
  Cl-  Cl1  1  0.41874333  0.36565500  0.12811500  1.0
  Cl-  Cl1  1  0.75207667  0.36565500  0.12811500  1.0
  Cl-  Cl1  1  0.08541000  0.36565500  0.62811500  1.0
  Cl-  Cl1  1  0.41874333  0.36565500  0.62811500  1.0
  Cl-  Cl1  1  0.75207667  0.36565500  0.62811500  1.0
  Cl-  Cl1  1  0.08541000  0.86565500  0.12811500  1.0
  Cl-  Cl1  1  0.41874333  0.86565500  0.12811500  1.0
  Cl-  Cl1  1  0.75207667  0.86565500  0.12811500  1.0
  Cl-  Cl1  1  0.08541000  0.86565500  0.62811500  1.0
  Cl-  Cl1  1  0.41874333  0.86565500  0.62811500  1.0
  Cl-  Cl1  1  0.75207667  0.86565500  0.62811500  1.0
  Cl-  Cl1  1  0.24377000  0.12811500  0.12811500  1.0
  Cl-  Cl1  1  0.57710333  0.12811500  0.12811500  1.0
  Cl-  Cl1  1  0.91043667  0.12811500  0.12811500  1.0
  Cl-  Cl1  1  0.24377000  0.12811500  0.62811500  1.0
  Cl-  Cl1  1  0.57710333  0.12811500  0.62811500  1.0
  Cl-  Cl1  1  0.91043667  0.12811500  0.62811500  1.0
  Cl-  Cl1  1  0.24377000  0.62811500  0.12811500  1.0
  Cl-  Cl1  1  0.57710333  0.62811500  0.12811500  1.0
  Cl-  Cl1  1  0.91043667  0.62811500  0.12811500  1.0
  Cl-  Cl1  1  0.24377000  0.62811500  0.62811500  1.0
  Cl-  Cl1  1  0.57710333  0.62811500  0.62811500  1.0
  Cl-  Cl1  1  0.91043667  0.62811500  0.62811500  1.0
  Cl-  Cl1  1  0.08541000  0.12811500  0.12811500  1.0
  Cl-  Cl1  1  0.41874333  0.12811500  0.12811500  1.0
  Cl-  Cl1  1  0.75207667  0.12811500  0.12811500  1.0
  Cl-  Cl1  1  0.08541000  0.12811500  0.62811500  1.0
  Cl-  Cl1  1  0.41874333  0.12811500  0.62811500  1.0
  Cl-  Cl1  1  0.75207667  0.12811500  0.62811500  1.0
  Cl-  Cl1  1  0.08541000  0.62811500  0.12811500  1.0
  Cl-  Cl1  1  0.41874333  0.62811500  0.12811500  1.0
  Cl-  Cl1  1  0.75207667  0.62811500  0.12811500  1.0
  Cl-  Cl1  1  0.08541000  0.62811500  0.62811500  1.0
  Cl-  Cl1  1  0.41874333  0.62811500  0.62811500  1.0
  Cl-  Cl1  1  0.75207667  0.62811500  0.62811500  1.0
  Cl-  Cl1  1  0.24792333  0.37188500  0.13434500  1.0
  Cl-  Cl1  1  0.58125667  0.37188500  0.13434500  1.0
  Cl-  Cl1  1  0.91459000  0.37188500  0.13434500  1.0
  Cl-  Cl1  1  0.24792333  0.37188500  0.63434500  1.0
  Cl-  Cl1  1  0.58125667  0.37188500  0.63434500  1.0
  Cl-  Cl1  1  0.91459000  0.37188500  0.63434500  1.0
  Cl-  Cl1  1  0.24792333  0.87188500  0.13434500  1.0
  Cl-  Cl1  1  0.58125667  0.87188500  0.13434500  1.0
  Cl-  Cl1  1  0.91459000  0.87188500  0.13434500  1.0
  Cl-  Cl1  1  0.24792333  0.87188500  0.63434500  1.0
  Cl-  Cl1  1  0.58125667  0.87188500  0.63434500  1.0
  Cl-  Cl1  1  0.91459000  0.87188500  0.63434500  1.0
  Cl-  Cl1  1  0.24792333  0.13434500  0.37188500  1.0
  Cl-  Cl1  1  0.58125667  0.13434500  0.37188500  1.0
  Cl-  Cl1  1  0.91459000  0.13434500  0.37188500  1.0
  Cl-  Cl1  1  0.24792333  0.13434500  0.87188500  1.0
  Cl-  Cl1  1  0.58125667  0.13434500  0.87188500  1.0
  Cl-  Cl1  1  0.91459000  0.13434500  0.87188500  1.0
  Cl-  Cl1  1  0.24792333  0.63434500  0.37188500  1.0
  Cl-  Cl1  1  0.58125667  0.63434500  0.37188500  1.0
  Cl-  Cl1  1  0.91459000  0.63434500  0.37188500  1.0
  Cl-  Cl1  1  0.24792333  0.63434500  0.87188500  1.0
  Cl-  Cl1  1  0.58125667  0.63434500  0.87188500  1.0
  Cl-  Cl1  1  0.91459000  0.63434500  0.87188500  1.0
  Cl-  Cl1  1  0.08956333  0.37188500  0.37188500  1.0
  Cl-  Cl1  1  0.42289667  0.37188500  0.37188500  1.0
  Cl-  Cl1  1  0.75623000  0.37188500  0.37188500  1.0
  Cl-  Cl1  1  0.08956333  0.37188500  0.87188500  1.0
  Cl-  Cl1  1  0.42289667  0.37188500  0.87188500  1.0
  Cl-  Cl1  1  0.75623000  0.37188500  0.87188500  1.0
  Cl-  Cl1  1  0.08956333  0.87188500  0.37188500  1.0
  Cl-  Cl1  1  0.42289667  0.87188500  0.37188500  1.0
  Cl-  Cl1  1  0.75623000  0.87188500  0.37188500  1.0
  Cl-  Cl1  1  0.08956333  0.87188500  0.87188500  1.0
  Cl-  Cl1  1  0.42289667  0.87188500  0.87188500  1.0
  Cl-  Cl1  1  0.75623000  0.87188500  0.87188500  1.0
  Cl-  Cl1  1  0.24792333  0.37188500  0.37188500  1.0
  Cl-  Cl1  1  0.58125667  0.37188500  0.37188500  1.0
  Cl-  Cl1  1  0.91459000  0.37188500  0.37188500  1.0
  Cl-  Cl1  1  0.24792333  0.37188500  0.87188500  1.0
  Cl-  Cl1  1  0.58125667  0.37188500  0.87188500  1.0
  Cl-  Cl1  1  0.91459000  0.37188500  0.87188500  1.0
  Cl-  Cl1  1  0.24792333  0.87188500  0.37188500  1.0
  Cl-  Cl1  1  0.58125667  0.87188500  0.37188500  1.0
  Cl-  Cl1  1  0.91459000  0.87188500  0.37188500  1.0
  Cl-  Cl1  1  0.24792333  0.87188500  0.87188500  1.0
  Cl-  Cl1  1  0.58125667  0.87188500  0.87188500  1.0
  Cl-  Cl1  1  0.91459000  0.87188500  0.87188500  1.0
