# generated using pymatgen
data_Li4SiO4
_symmetry_space_group_name_H-M   'P 1'
_cell_length_a   6.09860000
_cell_length_b   16.73000000
_cell_length_c   11.55560000
_cell_angle_alpha   99.05800000
_cell_angle_beta   90.00000000
_cell_angle_gamma   90.00000000
_symmetry_Int_Tables_number   1
_chemical_formula_structural   Li4SiO4
_chemical_formula_sum   'Li56 Si14 O56'
_cell_volume   1164.31008334
_cell_formula_units_Z   14
loop_
 _symmetry_equiv_pos_site_id
 _symmetry_equiv_pos_as_xyz
  1  'x, y, z'
loop_
 _atom_type_symbol
 _atom_type_oxidation_number
  Li+  1.0
  Si4+  4.0
  O2-  -2.0
loop_
 _atom_site_type_symbol
 _atom_site_label
 _atom_site_symmetry_multiplicity
 _atom_site_fract_x
 _atom_site_fract_y
 _atom_site_fract_z
 _atom_site_occupancy
  Li+  Li0  1  0.00604221  0.36234546  0.81901862  1.0
  Li+  Li1  1  0.50290000  0.63857000  0.67832000  1.0
  Li+  Li2  1  0.99671291  0.63793864  0.67659657  1.0
  Li+  Li3  1  0.49710000  0.36143000  0.82168000  1.0
  Li+  Li4  1  0.99470000  0.38281000  0.22613000  1.0
  Li+  Li5  1  0.49470000  0.61719000  0.27387000  1.0
  Li+  Li6  1  0.00530000  0.61719000  0.27387000  1.0
  Li+  Li7  1  0.50530000  0.38281000  0.22613000  1.0
  Li+  Li8  1  0.25000000  0.19638000  0.47872000  1.0
  Li+  Li9  1  0.75000000  0.80362000  0.02128000  1.0
  Li+  Li10  1  0.96470000  0.23295000  0.08403000  1.0
  Li+  Li11  1  0.46470000  0.76705000  0.41597000  1.0
  Li+  Li12  1  0.03530000  0.76705000  0.41597000  1.0
  Li+  Li13  1  0.53530000  0.23295000  0.08403000  1.0
  Li+  Li14  1  0.99645021  0.08902345  0.36702764  1.0
  Li+  Li15  1  0.49269202  0.90462593  0.13448052  1.0
  Li+  Li16  1  0.00270000  0.90777000  0.13353000  1.0
  Li+  Li17  1  0.50270000  0.09223000  0.36647000  1.0
  Li+  Li18  1  0.75000000  0.63967000  0.47847000  1.0
  Li+  Li19  1  0.25000000  0.36033000  0.02153000  1.0
  Li+  Li20  1  0.03060000  0.20603000  0.69940000  1.0
  Li+  Li21  1  0.53289814  0.79392182  0.80134349  1.0
  Li+  Li22  1  0.96915221  0.79354817  0.80262203  1.0
  Li+  Li23  1  0.46940000  0.20603000  0.69940000  1.0
  Li+  Li24  1  0.75120770  0.52102037  0.15840969  1.0
  Li+  Li25  1  0.25000000  0.48326000  0.33982000  1.0
  Li+  Li26  1  0.46820000  0.48644000  0.55825000  1.0
  Li+  Li27  1  0.96820000  0.51356000  0.94175000  1.0
  Li+  Li28  1  0.53180000  0.51356000  0.94175000  1.0
  Li+  Li29  1  0.03180000  0.48644000  0.55825000  1.0
  Li+  Li30  1  0.48948918  0.32765323  0.41061800  1.0
  Li+  Li31  1  0.99240000  0.67292000  0.08743000  1.0
  Li+  Li32  1  0.51056998  0.67047919  0.08393216  1.0
  Li+  Li33  1  0.00760000  0.32708000  0.41257000  1.0
  Li+  Li34  1  0.75287444  0.22257199  0.29619857  1.0
  Li+  Li35  1  0.25000000  0.77705000  0.20334000  1.0
  Li+  Li36  1  0.75000000  0.35630000  0.61609000  1.0
  Li+  Li37  1  0.25000000  0.64370000  0.88391000  1.0
  Li+  Li38  1  0.25000000  0.23239000  0.89370000  1.0
  Li+  Li39  1  0.75000000  0.76761000  0.60630000  1.0
  Li+  Li40  1  0.03930000  0.09751000  0.98859000  1.0
  Li+  Li41  1  0.54132505  0.90802073  0.51008292  1.0
  Li+  Li42  1  0.96450072  0.89865527  0.50643650  1.0
  Li+  Li43  1  0.46070000  0.09751000  0.98859000  1.0
  Li+  Li44  1  0.25000000  0.92939000  0.72147000  1.0
  Li+  Li45  1  0.75000000  0.07061000  0.77853000  1.0
  Li+  Li46  1  0.49690000  0.04586000  0.56198000  1.0
  Li+  Li47  1  0.00166776  0.95674821  0.93862110  1.0
  Li+  Li48  1  0.50310000  0.95414000  0.93802000  1.0
  Li+  Li49  1  0.00310000  0.04586000  0.56198000  1.0
  Li+  Li50  1  0.25000000  0.04749000  0.16767000  1.0
  Li+  Li51  1  0.75000000  0.95251000  0.33233000  1.0
  Li+  Li52  1  0.75000000  0.48902000  0.74410000  1.0
  Li+  Li53  1  0.25009963  0.51339459  0.75238509  1.0
  Li+  Li54  1  0.75438708  0.20477587  0.87323727  1.0
  Li+  Li55  1  0.25000000  0.79055000  0.62170000  1.0
  Si4+  Si56  1  0.75194576  0.07228172  0.13587055  1.0
  Si4+  Si57  1  0.25000000  0.92914300  0.36514000  1.0
  Si4+  Si58  1  0.24942209  0.21480659  0.22836021  1.0
  Si4+  Si59  1  0.75000000  0.78625600  0.27334000  1.0
  Si4+  Si60  1  0.75000000  0.36153200  0.99637000  1.0
  Si4+  Si61  1  0.25000000  0.63846800  0.50363000  1.0
  Si4+  Si62  1  0.74930688  0.49620022  0.41278121  1.0
  Si4+  Si63  1  0.25000000  0.50669100  0.09110000  1.0
  Si4+  Si64  1  0.75000000  0.20865600  0.54943000  1.0
  Si4+  Si65  1  0.25000000  0.79134400  0.95057000  1.0
  Si4+  Si66  1  0.25000000  0.35618000  0.64450000  1.0
  Si4+  Si67  1  0.75000000  0.64382000  0.85550000  1.0
  Si4+  Si68  1  0.25000000  0.07805800  0.79027000  1.0
  Si4+  Si69  1  0.75281999  0.92654520  0.71288962  1.0
  O2-  O70  1  0.75000000  0.10435000  0.27376000  1.0
  O2-  O71  1  0.25000000  0.89565000  0.22624000  1.0
  O2-  O72  1  0.97087000  0.01827000  0.09592000  1.0
  O2-  O73  1  0.47816739  0.98741005  0.40331177  1.0
  O2-  O74  1  0.02993654  0.98106812  0.40145174  1.0
  O2-  O75  1  0.52913000  0.01827000  0.09592000  1.0
  O2-  O76  1  0.74886917  0.14683873  0.05384278  1.0
  O2-  O77  1  0.25000000  0.85350000  0.44478000  1.0
  O2-  O78  1  0.25000000  0.14117000  0.30497000  1.0
  O2-  O79  1  0.75000000  0.85883000  0.19503000  1.0
  O2-  O80  1  0.25000000  0.17624000  0.08348000  1.0
  O2-  O81  1  0.74937582  0.82425699  0.42115395  1.0
  O2-  O82  1  0.02937000  0.26948000  0.24777000  1.0
  O2-  O83  1  0.52937000  0.73052000  0.25223000  1.0
  O2-  O84  1  0.97321066  0.72760003  0.25209807  1.0
  O2-  O85  1  0.47063000  0.26948000  0.24777000  1.0
  O2-  O86  1  0.74985612  0.39853856  0.12881844  1.0
  O2-  O87  1  0.24611375  0.59999492  0.36619678  1.0
  O2-  O88  1  0.96726000  0.30319000  0.96388000  1.0
  O2-  O89  1  0.46649357  0.69643031  0.53692221  1.0
  O2-  O90  1  0.03274000  0.69681000  0.53612000  1.0
  O2-  O91  1  0.53274000  0.30319000  0.96388000  1.0
  O2-  O92  1  0.75000000  0.42762000  0.90437000  1.0
  O2-  O93  1  0.25000000  0.57238000  0.59563000  1.0
  O2-  O94  1  0.75000000  0.56588000  0.33026000  1.0
  O2-  O95  1  0.25000000  0.43412000  0.16974000  1.0
  O2-  O96  1  0.97293000  0.43938000  0.39167000  1.0
  O2-  O97  1  0.47293000  0.56062000  0.10833000  1.0
  O2-  O98  1  0.02707000  0.56062000  0.10833000  1.0
  O2-  O99  1  0.52707000  0.43938000  0.39167000  1.0
  O2-  O100  1  0.75000000  0.53783000  0.54926000  1.0
  O2-  O101  1  0.25000000  0.46217000  0.95074000  1.0
  O2-  O102  1  0.75000000  0.27912000  0.46768000  1.0
  O2-  O103  1  0.25000000  0.72088000  0.03232000  1.0
  O2-  O104  1  0.96906781  0.15325106  0.53302120  1.0
  O2-  O105  1  0.47297000  0.84531000  0.96608000  1.0
  O2-  O106  1  0.02944852  0.84572711  0.96955772  1.0
  O2-  O107  1  0.52703000  0.15469000  0.53392000  1.0
  O2-  O108  1  0.75000000  0.25579000  0.68847000  1.0
  O2-  O109  1  0.25000000  0.74421000  0.81153000  1.0
  O2-  O110  1  0.25000000  0.31253000  0.51111000  1.0
  O2-  O111  1  0.75000000  0.68747000  0.98889000  1.0
  O2-  O112  1  0.03309000  0.41527000  0.67578000  1.0
  O2-  O113  1  0.53309000  0.58473000  0.82422000  1.0
  O2-  O114  1  0.96691000  0.58473000  0.82422000  1.0
  O2-  O115  1  0.46691000  0.41527000  0.67578000  1.0
  O2-  O116  1  0.25000000  0.29217000  0.73949000  1.0
  O2-  O117  1  0.75000000  0.70783000  0.76051000  1.0
  O2-  O118  1  0.03221938  0.13647802  0.82056762  1.0
  O2-  O119  1  0.53238775  0.86289515  0.67869671  1.0
  O2-  O120  1  0.96741000  0.86296000  0.68099000  1.0
  O2-  O121  1  0.46741000  0.13704000  0.81901000  1.0
  O2-  O122  1  0.25000000  0.01421000  0.88293000  1.0
  O2-  O123  1  0.75000000  0.98579000  0.61707000  1.0
  O2-  O124  1  0.25000000  0.02952000  0.65869000  1.0
  O2-  O125  1  0.75000000  0.97048000  0.84131000  1.0
