# generated using pymatgen
data_Li4SiO4
_symmetry_space_group_name_H-M   'P 1'
_cell_length_a   11.56514277
_cell_length_b   6.10363631
_cell_length_c   16.74381586
_cell_angle_alpha   90.00000000
_cell_angle_beta   80.94200000
_cell_angle_gamma   90.00000000
_symmetry_Int_Tables_number   1
_chemical_formula_structural   Li4SiO4
_chemical_formula_sum   'Li56 Si14 O56'
_cell_volume   1167.19697571
_cell_formula_units_Z   14
loop_
 _symmetry_equiv_pos_site_id
 _symmetry_equiv_pos_as_xyz
  1  'x, y, z'
loop_
 _atom_type_symbol
 _atom_type_oxidation_number
  Li+  1.0
  Si4+  4.0
  O2-  -2.0
loop_
 _atom_site_type_symbol
 _atom_site_label
 _atom_site_symmetry_multiplicity
 _atom_site_fract_x
 _atom_site_fract_y
 _atom_site_fract_z
 _atom_site_occupancy
  Li+  Li0  1  0.07168000  0.66376667  0.63857000  1.0
  Li+  Li1  1  0.92832000  0.16376667  0.36143000  1.0
  Li+  Li2  1  0.92832000  0.66956667  0.36143000  1.0
  Li+  Li3  1  0.07168000  0.16956667  0.63857000  1.0
  Li+  Li4  1  0.47613000  0.67196667  0.61719000  1.0
  Li+  Li5  1  0.52387000  0.17196667  0.38281000  1.0
  Li+  Li6  1  0.52387000  0.66136667  0.38281000  1.0
  Li+  Li7  1  0.47613000  0.16136667  0.61719000  1.0
  Li+  Li8  1  0.72872000  0.41666667  0.80362000  1.0
  Li+  Li9  1  0.27128000  0.91666667  0.19638000  1.0
  Li+  Li10  1  0.33403000  0.70196667  0.76705000  1.0
  Li+  Li11  1  0.66597000  0.20196667  0.23295000  1.0
  Li+  Li12  1  0.66597000  0.63136667  0.23295000  1.0
  Li+  Li13  1  0.33403000  0.13136667  0.76705000  1.0
  Li+  Li14  1  0.61647000  0.66936667  0.90777000  1.0
  Li+  Li15  1  0.38353000  0.16936667  0.09223000  1.0
  Li+  Li16  1  0.38353000  0.66396667  0.09223000  1.0
  Li+  Li17  1  0.61647000  0.16396667  0.90777000  1.0
  Li+  Li18  1  0.72847000  0.91666667  0.36033000  1.0
  Li+  Li19  1  0.27153000  0.41666667  0.63967000  1.0
  Li+  Li20  1  0.94940000  0.63606667  0.79397000  1.0
  Li+  Li21  1  0.05060000  0.13606667  0.20603000  1.0
  Li+  Li22  1  0.05060000  0.69726667  0.20603000  1.0
  Li+  Li23  1  0.94940000  0.19726667  0.79397000  1.0
  Li+  Li24  1  0.41018000  0.91666667  0.48326000  1.0
  Li+  Li25  1  0.58982000  0.41666667  0.51674000  1.0
  Li+  Li26  1  0.80825000  0.19846667  0.51356000  1.0
  Li+  Li27  1  0.19175000  0.69846667  0.48644000  1.0
  Li+  Li28  1  0.19175000  0.13486667  0.48644000  1.0
  Li+  Li29  1  0.80825000  0.63486667  0.51356000  1.0
  Li+  Li30  1  0.66257000  0.17426667  0.67292000  1.0
  Li+  Li31  1  0.33743000  0.67426667  0.32708000  1.0
  Li+  Li32  1  0.33743000  0.15906667  0.32708000  1.0
  Li+  Li33  1  0.66257000  0.65906667  0.67292000  1.0
  Li+  Li34  1  0.54666000  0.91666667  0.77705000  1.0
  Li+  Li35  1  0.45334000  0.41666667  0.22295000  1.0
  Li+  Li36  1  0.86609000  0.91666667  0.64370000  1.0
  Li+  Li37  1  0.13391000  0.41666667  0.35630000  1.0
  Li+  Li38  1  0.14370000  0.41666667  0.76761000  1.0
  Li+  Li39  1  0.85630000  0.91666667  0.23239000  1.0
  Li+  Li40  1  0.23859000  0.62736667  0.90249000  1.0
  Li+  Li41  1  0.76141000  0.12736667  0.09751000  1.0
  Li+  Li42  1  0.76141000  0.70596667  0.09751000  1.0
  Li+  Li43  1  0.23859000  0.20596667  0.90249000  1.0
  Li+  Li44  1  0.97147000  0.41666667  0.07061000  1.0
  Li+  Li45  1  0.02853000  0.91666667  0.92939000  1.0
  Li+  Li46  1  0.81198000  0.16976667  0.95414000  1.0
  Li+  Li47  1  0.18802000  0.66976667  0.04586000  1.0
  Li+  Li48  1  0.18802000  0.16356667  0.04586000  1.0
  Li+  Li49  1  0.81198000  0.66356667  0.95414000  1.0
  Li+  Li50  1  0.41767000  0.41666667  0.95251000  1.0
  Li+  Li51  1  0.58233000  0.91666667  0.04749000  1.0
  Li+  Li52  1  0.99410000  0.91666667  0.51098000  1.0
  Li+  Li53  1  0.00590000  0.41666667  0.48902000  1.0
  Li+  Li54  1  0.12830000  0.91666667  0.79055000  1.0
  Li+  Li55  1  0.87170000  0.41666667  0.20945000  1.0
  Si4+  Si56  1  0.38486000  0.91666667  0.92914300  1.0
  Si4+  Si57  1  0.61514000  0.41666667  0.07085700  1.0
  Si4+  Si58  1  0.47666000  0.41666667  0.78625600  1.0
  Si4+  Si59  1  0.52334000  0.91666667  0.21374400  1.0
  Si4+  Si60  1  0.24637000  0.91666667  0.63846800  1.0
  Si4+  Si61  1  0.75363000  0.41666667  0.36153200  1.0
  Si4+  Si62  1  0.65890000  0.91666667  0.50669100  1.0
  Si4+  Si63  1  0.34110000  0.41666667  0.49330900  1.0
  Si4+  Si64  1  0.79943000  0.91666667  0.79134400  1.0
  Si4+  Si65  1  0.20057000  0.41666667  0.20865600  1.0
  Si4+  Si66  1  0.89450000  0.41666667  0.64382000  1.0
  Si4+  Si67  1  0.10550000  0.91666667  0.35618000  1.0
  Si4+  Si68  1  0.04027000  0.41666667  0.92194200  1.0
  Si4+  Si69  1  0.95973000  0.91666667  0.07805800  1.0
  O2-  O70  1  0.52376000  0.91666667  0.89565000  1.0
  O2-  O71  1  0.47624000  0.41666667  0.10435000  1.0
  O2-  O72  1  0.34592000  0.69579667  0.98173000  1.0
  O2-  O73  1  0.65408000  0.19579667  0.01827000  1.0
  O2-  O74  1  0.65408000  0.63753667  0.01827000  1.0
  O2-  O75  1  0.34592000  0.13753667  0.98173000  1.0
  O2-  O76  1  0.30522000  0.91666667  0.85350000  1.0
  O2-  O77  1  0.69478000  0.41666667  0.14650000  1.0
  O2-  O78  1  0.55497000  0.41666667  0.85883000  1.0
  O2-  O79  1  0.44503000  0.91666667  0.14117000  1.0
  O2-  O80  1  0.33348000  0.41666667  0.82376000  1.0
  O2-  O81  1  0.66652000  0.91666667  0.17624000  1.0
  O2-  O82  1  0.49777000  0.63729667  0.73052000  1.0
  O2-  O83  1  0.50223000  0.13729667  0.26948000  1.0
  O2-  O84  1  0.50223000  0.69603667  0.26948000  1.0
  O2-  O85  1  0.49777000  0.19603667  0.73052000  1.0
  O2-  O86  1  0.38174000  0.91666667  0.59892000  1.0
  O2-  O87  1  0.61826000  0.41666667  0.40108000  1.0
  O2-  O88  1  0.21388000  0.69940667  0.69681000  1.0
  O2-  O89  1  0.78612000  0.19940667  0.30319000  1.0
  O2-  O90  1  0.78612000  0.63392667  0.30319000  1.0
  O2-  O91  1  0.21388000  0.13392667  0.69681000  1.0
  O2-  O92  1  0.15437000  0.91666667  0.57238000  1.0
  O2-  O93  1  0.84563000  0.41666667  0.42762000  1.0
  O2-  O94  1  0.58026000  0.91666667  0.43412000  1.0
  O2-  O95  1  0.41974000  0.41666667  0.56588000  1.0
  O2-  O96  1  0.64167000  0.69373667  0.56062000  1.0
  O2-  O97  1  0.35833000  0.19373667  0.43938000  1.0
  O2-  O98  1  0.35833000  0.63959667  0.43938000  1.0
  O2-  O99  1  0.64167000  0.13959667  0.56062000  1.0
  O2-  O100  1  0.79926000  0.91666667  0.46217000  1.0
  O2-  O101  1  0.20074000  0.41666667  0.53783000  1.0
  O2-  O102  1  0.71768000  0.91666667  0.72088000  1.0
  O2-  O103  1  0.28232000  0.41666667  0.27912000  1.0
  O2-  O104  1  0.78392000  0.69369667  0.84531000  1.0
  O2-  O105  1  0.21608000  0.19369667  0.15469000  1.0
  O2-  O106  1  0.21608000  0.63963667  0.15469000  1.0
  O2-  O107  1  0.78392000  0.13963667  0.84531000  1.0
  O2-  O108  1  0.93847000  0.91666667  0.74421000  1.0
  O2-  O109  1  0.06153000  0.41666667  0.25579000  1.0
  O2-  O110  1  0.76111000  0.41666667  0.68747000  1.0
  O2-  O111  1  0.23889000  0.91666667  0.31253000  1.0
  O2-  O112  1  0.92578000  0.63357667  0.58473000  1.0
  O2-  O113  1  0.07422000  0.13357667  0.41527000  1.0
  O2-  O114  1  0.07422000  0.69975667  0.41527000  1.0
  O2-  O115  1  0.92578000  0.19975667  0.58473000  1.0
  O2-  O116  1  0.98949000  0.41666667  0.70783000  1.0
  O2-  O117  1  0.01051000  0.91666667  0.29217000  1.0
  O2-  O118  1  0.06901000  0.63407667  0.86296000  1.0
  O2-  O119  1  0.93099000  0.13407667  0.13704000  1.0
  O2-  O120  1  0.93099000  0.69925667  0.13704000  1.0
  O2-  O121  1  0.06901000  0.19925667  0.86296000  1.0
  O2-  O122  1  0.13293000  0.41666667  0.98579000  1.0
  O2-  O123  1  0.86707000  0.91666667  0.01421000  1.0
  O2-  O124  1  0.90869000  0.41666667  0.97048000  1.0
  O2-  O125  1  0.09131000  0.91666667  0.02952000  1.0
