# generated using pymatgen
data_Li4SiO4
_symmetry_space_group_name_H-M   'P 1'
_cell_length_a   6.09860000
_cell_length_b   11.55560000
_cell_length_c   16.73000000
_cell_angle_alpha   99.05800000
_cell_angle_beta   90.00000000
_cell_angle_gamma   90.00000000
_symmetry_Int_Tables_number   1
_chemical_formula_structural   Li4SiO4
_chemical_formula_sum   'Li56 Si14 O56'
_cell_volume   1164.31008334
_cell_formula_units_Z   14
loop_
 _symmetry_equiv_pos_site_id
 _symmetry_equiv_pos_as_xyz
  1  'x, y, z'
loop_
 _atom_type_symbol
 _atom_type_oxidation_number
  Li+  1.0
  Si4+  4.0
  O2-  -2.0
loop_
 _atom_site_type_symbol
 _atom_site_label
 _atom_site_symmetry_multiplicity
 _atom_site_fract_x
 _atom_site_fract_y
 _atom_site_fract_z
 _atom_site_occupancy
  Li+  Li1  1  0.00290000  0.92832000  0.63857000  1.0
  Li+  Li1  1  0.50290000  0.07168000  0.36143000  1.0
  Li+  Li1  1  0.99710000  0.07168000  0.36143000  1.0
  Li+  Li1  1  0.49710000  0.92832000  0.63857000  1.0
  Li+  Li2  1  0.99470000  0.52387000  0.61719000  1.0
  Li+  Li2  1  0.49470000  0.47613000  0.38281000  1.0
  Li+  Li2  1  0.00530000  0.47613000  0.38281000  1.0
  Li+  Li2  1  0.50530000  0.52387000  0.61719000  1.0
  Li+  Li3  1  0.25000000  0.27128000  0.80362000  1.0
  Li+  Li3  1  0.75000000  0.72872000  0.19638000  1.0
  Li+  Li4  1  0.96470000  0.66597000  0.76705000  1.0
  Li+  Li4  1  0.46470000  0.33403000  0.23295000  1.0
  Li+  Li4  1  0.03530000  0.33403000  0.23295000  1.0
  Li+  Li4  1  0.53530000  0.66597000  0.76705000  1.0
  Li+  Li5  1  0.99730000  0.38353000  0.90777000  1.0
  Li+  Li5  1  0.49730000  0.61647000  0.09223000  1.0
  Li+  Li5  1  0.00270000  0.61647000  0.09223000  1.0
  Li+  Li5  1  0.50270000  0.38353000  0.90777000  1.0
  Li+  Li6  1  0.75000000  0.27153000  0.36033000  1.0
  Li+  Li6  1  0.25000000  0.72847000  0.63967000  1.0
  Li+  Li7  1  0.03060000  0.05060000  0.79397000  1.0
  Li+  Li7  1  0.53060000  0.94940000  0.20603000  1.0
  Li+  Li7  1  0.96940000  0.94940000  0.20603000  1.0
  Li+  Li7  1  0.46940000  0.05060000  0.79397000  1.0
  Li+  Li8  1  0.75000000  0.58982000  0.48326000  1.0
  Li+  Li8  1  0.25000000  0.41018000  0.51674000  1.0
  Li+  Li9  1  0.46820000  0.19175000  0.51356000  1.0
  Li+  Li9  1  0.96820000  0.80825000  0.48644000  1.0
  Li+  Li9  1  0.53180000  0.80825000  0.48644000  1.0
  Li+  Li9  1  0.03180000  0.19175000  0.51356000  1.0
  Li+  Li10  1  0.49240000  0.33743000  0.67292000  1.0
  Li+  Li10  1  0.99240000  0.66257000  0.32708000  1.0
  Li+  Li10  1  0.50760000  0.66257000  0.32708000  1.0
  Li+  Li10  1  0.00760000  0.33743000  0.67292000  1.0
  Li+  Li11  1  0.75000000  0.45334000  0.77705000  1.0
  Li+  Li11  1  0.25000000  0.54666000  0.22295000  1.0
  Li+  Li12  1  0.75000000  0.13391000  0.64370000  1.0
  Li+  Li12  1  0.25000000  0.86609000  0.35630000  1.0
  Li+  Li13  1  0.25000000  0.85630000  0.76761000  1.0
  Li+  Li13  1  0.75000000  0.14370000  0.23239000  1.0
  Li+  Li14  1  0.03930000  0.76141000  0.90249000  1.0
  Li+  Li14  1  0.53930000  0.23859000  0.09751000  1.0
  Li+  Li14  1  0.96070000  0.23859000  0.09751000  1.0
  Li+  Li14  1  0.46070000  0.76141000  0.90249000  1.0
  Li+  Li15  1  0.25000000  0.02853000  0.07061000  1.0
  Li+  Li15  1  0.75000000  0.97147000  0.92939000  1.0
  Li+  Li16  1  0.49690000  0.18802000  0.95414000  1.0
  Li+  Li16  1  0.99690000  0.81198000  0.04586000  1.0
  Li+  Li16  1  0.50310000  0.81198000  0.04586000  1.0
  Li+  Li16  1  0.00310000  0.18802000  0.95414000  1.0
  Li+  Li17  1  0.25000000  0.58233000  0.95251000  1.0
  Li+  Li17  1  0.75000000  0.41767000  0.04749000  1.0
  Li+  Li18  1  0.75000000  0.00590000  0.51098000  1.0
  Li+  Li18  1  0.25000000  0.99410000  0.48902000  1.0
  Li+  Li19  1  0.75000000  0.87170000  0.79055000  1.0
  Li+  Li19  1  0.25000000  0.12830000  0.20945000  1.0
  Si4+  Si1  1  0.75000000  0.61514000  0.92914300  1.0
  Si4+  Si1  1  0.25000000  0.38486000  0.07085700  1.0
  Si4+  Si2  1  0.25000000  0.52334000  0.78625600  1.0
  Si4+  Si2  1  0.75000000  0.47666000  0.21374400  1.0
  Si4+  Si3  1  0.75000000  0.75363000  0.63846800  1.0
  Si4+  Si3  1  0.25000000  0.24637000  0.36153200  1.0
  Si4+  Si4  1  0.75000000  0.34110000  0.50669100  1.0
  Si4+  Si4  1  0.25000000  0.65890000  0.49330900  1.0
  Si4+  Si5  1  0.75000000  0.20057000  0.79134400  1.0
  Si4+  Si5  1  0.25000000  0.79943000  0.20865600  1.0
  Si4+  Si6  1  0.25000000  0.10550000  0.64382000  1.0
  Si4+  Si6  1  0.75000000  0.89450000  0.35618000  1.0
  Si4+  Si7  1  0.25000000  0.95973000  0.92194200  1.0
  Si4+  Si7  1  0.75000000  0.04027000  0.07805800  1.0
  O2-  O1  1  0.75000000  0.47624000  0.89565000  1.0
  O2-  O1  1  0.25000000  0.52376000  0.10435000  1.0
  O2-  O2  1  0.97087000  0.65408000  0.98173000  1.0
  O2-  O2  1  0.47087000  0.34592000  0.01827000  1.0
  O2-  O2  1  0.02913000  0.34592000  0.01827000  1.0
  O2-  O2  1  0.52913000  0.65408000  0.98173000  1.0
  O2-  O3  1  0.75000000  0.69478000  0.85350000  1.0
  O2-  O3  1  0.25000000  0.30522000  0.14650000  1.0
  O2-  O4  1  0.25000000  0.44503000  0.85883000  1.0
  O2-  O4  1  0.75000000  0.55497000  0.14117000  1.0
  O2-  O5  1  0.25000000  0.66652000  0.82376000  1.0
  O2-  O5  1  0.75000000  0.33348000  0.17624000  1.0
  O2-  O6  1  0.02937000  0.50223000  0.73052000  1.0
  O2-  O6  1  0.52937000  0.49777000  0.26948000  1.0
  O2-  O6  1  0.97063000  0.49777000  0.26948000  1.0
  O2-  O6  1  0.47063000  0.50223000  0.73052000  1.0
  O2-  O7  1  0.75000000  0.61826000  0.59892000  1.0
  O2-  O7  1  0.25000000  0.38174000  0.40108000  1.0
  O2-  O8  1  0.96726000  0.78612000  0.69681000  1.0
  O2-  O8  1  0.46726000  0.21388000  0.30319000  1.0
  O2-  O8  1  0.03274000  0.21388000  0.30319000  1.0
  O2-  O8  1  0.53274000  0.78612000  0.69681000  1.0
  O2-  O9  1  0.75000000  0.84563000  0.57238000  1.0
  O2-  O9  1  0.25000000  0.15437000  0.42762000  1.0
  O2-  O10  1  0.75000000  0.41974000  0.43412000  1.0
  O2-  O10  1  0.25000000  0.58026000  0.56588000  1.0
  O2-  O11  1  0.97293000  0.35833000  0.56062000  1.0
  O2-  O11  1  0.47293000  0.64167000  0.43938000  1.0
  O2-  O11  1  0.02707000  0.64167000  0.43938000  1.0
  O2-  O11  1  0.52707000  0.35833000  0.56062000  1.0
  O2-  O12  1  0.75000000  0.20074000  0.46217000  1.0
  O2-  O12  1  0.25000000  0.79926000  0.53783000  1.0
  O2-  O13  1  0.75000000  0.28232000  0.72088000  1.0
  O2-  O13  1  0.25000000  0.71768000  0.27912000  1.0
  O2-  O14  1  0.97297000  0.21608000  0.84531000  1.0
  O2-  O14  1  0.47297000  0.78392000  0.15469000  1.0
  O2-  O14  1  0.02703000  0.78392000  0.15469000  1.0
  O2-  O14  1  0.52703000  0.21608000  0.84531000  1.0
  O2-  O15  1  0.75000000  0.06153000  0.74421000  1.0
  O2-  O15  1  0.25000000  0.93847000  0.25579000  1.0
  O2-  O16  1  0.25000000  0.23889000  0.68747000  1.0
  O2-  O16  1  0.75000000  0.76111000  0.31253000  1.0
  O2-  O17  1  0.03309000  0.07422000  0.58473000  1.0
  O2-  O17  1  0.53309000  0.92578000  0.41527000  1.0
  O2-  O17  1  0.96691000  0.92578000  0.41527000  1.0
  O2-  O17  1  0.46691000  0.07422000  0.58473000  1.0
  O2-  O18  1  0.25000000  0.01051000  0.70783000  1.0
  O2-  O18  1  0.75000000  0.98949000  0.29217000  1.0
  O2-  O19  1  0.03259000  0.93099000  0.86296000  1.0
  O2-  O19  1  0.53259000  0.06901000  0.13704000  1.0
  O2-  O19  1  0.96741000  0.06901000  0.13704000  1.0
  O2-  O19  1  0.46741000  0.93099000  0.86296000  1.0
  O2-  O20  1  0.25000000  0.86707000  0.98579000  1.0
  O2-  O20  1  0.75000000  0.13293000  0.01421000  1.0
  O2-  O21  1  0.25000000  0.09131000  0.97048000  1.0
  O2-  O21  1  0.75000000  0.90869000  0.02952000  1.0
