# generated using pymatgen
data_Li2CeSm(MoO4)4
_symmetry_space_group_name_H-M   'P 1'
_cell_length_a   21.01840000
_cell_length_b   10.50920000
_cell_length_c   13.69639622
_cell_angle_alpha   112.55985464
_cell_angle_beta   112.55985464
_cell_angle_gamma   90.00000000
_symmetry_Int_Tables_number   1
_chemical_formula_structural   Li2CeSm(MoO4)4
_chemical_formula_sum   'Li16 Ce8 Sm8 Mo32 O128'
_cell_volume   2541.34415727
_cell_formula_units_Z   8
loop_
 _symmetry_equiv_pos_site_id
 _symmetry_equiv_pos_as_xyz
  1  'x, y, z'
loop_
 _atom_type_symbol
 _atom_type_oxidation_number
  Li+  1.0
  Ce3+  3.0
  Sm3+  3.0
  Mo6+  6.0
  O2-  -2.0
loop_
 _atom_site_type_symbol
 _atom_site_label
 _atom_site_symmetry_multiplicity
 _atom_site_fract_x
 _atom_site_fract_y
 _atom_site_fract_z
 _atom_site_occupancy
  Li+  Li0  1  0.40625000  0.43750000  0.62500000  1.0
  Li+  Li0  1  0.90625000  0.43750000  0.62500000  1.0
  Li+  Li1  1  0.09375000  0.06250000  0.37500000  1.0
  Li+  Li1  1  0.59375000  0.06250000  0.37500000  1.0
  Li+  Li2  1  0.09375000  0.06250000  0.87500000  1.0
  Li+  Li2  1  0.59375000  0.06250000  0.87500000  1.0
  Li+  Li3  1  0.09375000  0.56250000  0.37500000  1.0
  Li+  Li3  1  0.59375000  0.56250000  0.37500000  1.0
  Li+  Li4  1  0.09375000  0.56250000  0.87500000  1.0
  Li+  Li4  1  0.59375000  0.56250000  0.87500000  1.0
  Li+  Li5  1  0.34375000  0.06250000  0.87500000  1.0
  Li+  Li5  1  0.84375000  0.06250000  0.87500000  1.0
  Li+  Li6  1  0.34375000  0.56250000  0.37500000  1.0
  Li+  Li6  1  0.84375000  0.56250000  0.37500000  1.0
  Li+  Li7  1  0.34375000  0.56250000  0.87500000  1.0
  Li+  Li7  1  0.84375000  0.56250000  0.87500000  1.0
  Ce3+  Ce8  1  0.15625000  0.43750000  0.12500000  1.0
  Ce3+  Ce8  1  0.65625000  0.43750000  0.12500000  1.0
  Ce3+  Ce9  1  0.15625000  0.43750000  0.62500000  1.0
  Ce3+  Ce9  1  0.65625000  0.43750000  0.62500000  1.0
  Ce3+  Ce10  1  0.15625000  0.93750000  0.12500000  1.0
  Ce3+  Ce10  1  0.65625000  0.93750000  0.12500000  1.0
  Ce3+  Ce11  1  0.34375000  0.06250000  0.37500000  1.0
  Ce3+  Ce11  1  0.84375000  0.06250000  0.37500000  1.0
  Sm3+  Sm12  1  0.15625000  0.93750000  0.62500000  1.0
  Sm3+  Sm12  1  0.65625000  0.93750000  0.62500000  1.0
  Sm3+  Sm13  1  0.40625000  0.43750000  0.12500000  1.0
  Sm3+  Sm13  1  0.90625000  0.43750000  0.12500000  1.0
  Sm3+  Sm14  1  0.40625000  0.93750000  0.12500000  1.0
  Sm3+  Sm14  1  0.90625000  0.93750000  0.12500000  1.0
  Sm3+  Sm15  1  0.40625000  0.93750000  0.62500000  1.0
  Sm3+  Sm15  1  0.90625000  0.93750000  0.62500000  1.0
  Mo6+  Mo1  1  0.03125000  0.18750000  0.12500000  1.0
  Mo6+  Mo1  1  0.53125000  0.18750000  0.12500000  1.0
  Mo6+  Mo1  1  0.03125000  0.18750000  0.62500000  1.0
  Mo6+  Mo1  1  0.53125000  0.18750000  0.62500000  1.0
  Mo6+  Mo1  1  0.03125000  0.68750000  0.12500000  1.0
  Mo6+  Mo1  1  0.53125000  0.68750000  0.12500000  1.0
  Mo6+  Mo1  1  0.03125000  0.68750000  0.62500000  1.0
  Mo6+  Mo1  1  0.53125000  0.68750000  0.62500000  1.0
  Mo6+  Mo1  1  0.28125000  0.18750000  0.12500000  1.0
  Mo6+  Mo1  1  0.78125000  0.18750000  0.12500000  1.0
  Mo6+  Mo1  1  0.28125000  0.18750000  0.62500000  1.0
  Mo6+  Mo1  1  0.78125000  0.18750000  0.62500000  1.0
  Mo6+  Mo1  1  0.28125000  0.68750000  0.12500000  1.0
  Mo6+  Mo1  1  0.78125000  0.68750000  0.12500000  1.0
  Mo6+  Mo1  1  0.28125000  0.68750000  0.62500000  1.0
  Mo6+  Mo1  1  0.78125000  0.68750000  0.62500000  1.0
  Mo6+  Mo1  1  0.21875000  0.31250000  0.37500000  1.0
  Mo6+  Mo1  1  0.71875000  0.31250000  0.37500000  1.0
  Mo6+  Mo1  1  0.21875000  0.31250000  0.87500000  1.0
  Mo6+  Mo1  1  0.71875000  0.31250000  0.87500000  1.0
  Mo6+  Mo1  1  0.21875000  0.81250000  0.37500000  1.0
  Mo6+  Mo1  1  0.71875000  0.81250000  0.37500000  1.0
  Mo6+  Mo1  1  0.21875000  0.81250000  0.87500000  1.0
  Mo6+  Mo1  1  0.71875000  0.81250000  0.87500000  1.0
  Mo6+  Mo1  1  0.46875000  0.31250000  0.37500000  1.0
  Mo6+  Mo1  1  0.96875000  0.31250000  0.37500000  1.0
  Mo6+  Mo1  1  0.46875000  0.31250000  0.87500000  1.0
  Mo6+  Mo1  1  0.96875000  0.31250000  0.87500000  1.0
  Mo6+  Mo1  1  0.46875000  0.81250000  0.37500000  1.0
  Mo6+  Mo1  1  0.96875000  0.81250000  0.37500000  1.0
  Mo6+  Mo1  1  0.46875000  0.81250000  0.87500000  1.0
  Mo6+  Mo1  1  0.96875000  0.81250000  0.87500000  1.0
  O2-  O1  1  0.03515000  0.39730000  0.28960000  1.0
  O2-  O1  1  0.53515000  0.39730000  0.28960000  1.0
  O2-  O1  1  0.03515000  0.39730000  0.78960000  1.0
  O2-  O1  1  0.53515000  0.39730000  0.78960000  1.0
  O2-  O1  1  0.03515000  0.89730000  0.28960000  1.0
  O2-  O1  1  0.53515000  0.89730000  0.28960000  1.0
  O2-  O1  1  0.03515000  0.89730000  0.78960000  1.0
  O2-  O1  1  0.53515000  0.89730000  0.78960000  1.0
  O2-  O1  1  0.28515000  0.39730000  0.28960000  1.0
  O2-  O1  1  0.78515000  0.39730000  0.28960000  1.0
  O2-  O1  1  0.28515000  0.39730000  0.78960000  1.0
  O2-  O1  1  0.78515000  0.39730000  0.78960000  1.0
  O2-  O1  1  0.28515000  0.89730000  0.28960000  1.0
  O2-  O1  1  0.78515000  0.89730000  0.28960000  1.0
  O2-  O1  1  0.28515000  0.89730000  0.78960000  1.0
  O2-  O1  1  0.78515000  0.89730000  0.78960000  1.0
  O2-  O1  1  0.10965000  0.14230000  0.28960000  1.0
  O2-  O1  1  0.60965000  0.14230000  0.28960000  1.0
  O2-  O1  1  0.10965000  0.14230000  0.78960000  1.0
  O2-  O1  1  0.60965000  0.14230000  0.78960000  1.0
  O2-  O1  1  0.10965000  0.64230000  0.28960000  1.0
  O2-  O1  1  0.60965000  0.64230000  0.28960000  1.0
  O2-  O1  1  0.10965000  0.64230000  0.78960000  1.0
  O2-  O1  1  0.60965000  0.64230000  0.78960000  1.0
  O2-  O1  1  0.35965000  0.14230000  0.28960000  1.0
  O2-  O1  1  0.85965000  0.14230000  0.28960000  1.0
  O2-  O1  1  0.35965000  0.14230000  0.78960000  1.0
  O2-  O1  1  0.85965000  0.14230000  0.78960000  1.0
  O2-  O1  1  0.35965000  0.64230000  0.28960000  1.0
  O2-  O1  1  0.85965000  0.64230000  0.28960000  1.0
  O2-  O1  1  0.35965000  0.64230000  0.78960000  1.0
  O2-  O1  1  0.85965000  0.64230000  0.78960000  1.0
  O2-  O1  1  0.07365000  0.46930000  0.03960000  1.0
  O2-  O1  1  0.57365000  0.46930000  0.03960000  1.0
  O2-  O1  1  0.07365000  0.46930000  0.53960000  1.0
  O2-  O1  1  0.57365000  0.46930000  0.53960000  1.0
  O2-  O1  1  0.07365000  0.96930000  0.03960000  1.0
  O2-  O1  1  0.57365000  0.96930000  0.03960000  1.0
  O2-  O1  1  0.07365000  0.96930000  0.53960000  1.0
  O2-  O1  1  0.57365000  0.96930000  0.53960000  1.0
  O2-  O1  1  0.32365000  0.46930000  0.03960000  1.0
  O2-  O1  1  0.82365000  0.46930000  0.03960000  1.0
  O2-  O1  1  0.32365000  0.46930000  0.53960000  1.0
  O2-  O1  1  0.82365000  0.46930000  0.53960000  1.0
  O2-  O1  1  0.32365000  0.96930000  0.03960000  1.0
  O2-  O1  1  0.82365000  0.96930000  0.03960000  1.0
  O2-  O1  1  0.32365000  0.96930000  0.53960000  1.0
  O2-  O1  1  0.82365000  0.96930000  0.53960000  1.0
  O2-  O1  1  0.19615000  0.32030000  0.03960000  1.0
  O2-  O1  1  0.69615000  0.32030000  0.03960000  1.0
  O2-  O1  1  0.19615000  0.32030000  0.53960000  1.0
  O2-  O1  1  0.69615000  0.32030000  0.53960000  1.0
  O2-  O1  1  0.19615000  0.82030000  0.03960000  1.0
  O2-  O1  1  0.69615000  0.82030000  0.03960000  1.0
  O2-  O1  1  0.19615000  0.82030000  0.53960000  1.0
  O2-  O1  1  0.69615000  0.82030000  0.53960000  1.0
  O2-  O1  1  0.44615000  0.32030000  0.03960000  1.0
  O2-  O1  1  0.94615000  0.32030000  0.03960000  1.0
  O2-  O1  1  0.44615000  0.32030000  0.53960000  1.0
  O2-  O1  1  0.94615000  0.32030000  0.53960000  1.0
  O2-  O1  1  0.44615000  0.82030000  0.03960000  1.0
  O2-  O1  1  0.94615000  0.82030000  0.03960000  1.0
  O2-  O1  1  0.44615000  0.82030000  0.53960000  1.0
  O2-  O1  1  0.94615000  0.82030000  0.53960000  1.0
  O2-  O1  1  0.21485000  0.10270000  0.21040000  1.0
  O2-  O1  1  0.71485000  0.10270000  0.21040000  1.0
  O2-  O1  1  0.21485000  0.10270000  0.71040000  1.0
  O2-  O1  1  0.71485000  0.10270000  0.71040000  1.0
  O2-  O1  1  0.21485000  0.60270000  0.21040000  1.0
  O2-  O1  1  0.71485000  0.60270000  0.21040000  1.0
  O2-  O1  1  0.21485000  0.60270000  0.71040000  1.0
  O2-  O1  1  0.71485000  0.60270000  0.71040000  1.0
  O2-  O1  1  0.46485000  0.10270000  0.21040000  1.0
  O2-  O1  1  0.96485000  0.10270000  0.21040000  1.0
  O2-  O1  1  0.46485000  0.10270000  0.71040000  1.0
  O2-  O1  1  0.96485000  0.10270000  0.71040000  1.0
  O2-  O1  1  0.46485000  0.60270000  0.21040000  1.0
  O2-  O1  1  0.96485000  0.60270000  0.21040000  1.0
  O2-  O1  1  0.46485000  0.60270000  0.71040000  1.0
  O2-  O1  1  0.96485000  0.60270000  0.71040000  1.0
  O2-  O1  1  0.14035000  0.35770000  0.21040000  1.0
  O2-  O1  1  0.64035000  0.35770000  0.21040000  1.0
  O2-  O1  1  0.14035000  0.35770000  0.71040000  1.0
  O2-  O1  1  0.64035000  0.35770000  0.71040000  1.0
  O2-  O1  1  0.14035000  0.85770000  0.21040000  1.0
  O2-  O1  1  0.64035000  0.85770000  0.21040000  1.0
  O2-  O1  1  0.14035000  0.85770000  0.71040000  1.0
  O2-  O1  1  0.64035000  0.85770000  0.71040000  1.0
  O2-  O1  1  0.39035000  0.35770000  0.21040000  1.0
  O2-  O1  1  0.89035000  0.35770000  0.21040000  1.0
  O2-  O1  1  0.39035000  0.35770000  0.71040000  1.0
  O2-  O1  1  0.89035000  0.35770000  0.71040000  1.0
  O2-  O1  1  0.39035000  0.85770000  0.21040000  1.0
  O2-  O1  1  0.89035000  0.85770000  0.21040000  1.0
  O2-  O1  1  0.39035000  0.85770000  0.71040000  1.0
  O2-  O1  1  0.89035000  0.85770000  0.71040000  1.0
  O2-  O1  1  0.17635000  0.03070000  0.46040000  1.0
  O2-  O1  1  0.67635000  0.03070000  0.46040000  1.0
  O2-  O1  1  0.17635000  0.03070000  0.96040000  1.0
  O2-  O1  1  0.67635000  0.03070000  0.96040000  1.0
  O2-  O1  1  0.17635000  0.53070000  0.46040000  1.0
  O2-  O1  1  0.67635000  0.53070000  0.46040000  1.0
  O2-  O1  1  0.17635000  0.53070000  0.96040000  1.0
  O2-  O1  1  0.67635000  0.53070000  0.96040000  1.0
  O2-  O1  1  0.42635000  0.03070000  0.46040000  1.0
  O2-  O1  1  0.92635000  0.03070000  0.46040000  1.0
  O2-  O1  1  0.42635000  0.03070000  0.96040000  1.0
  O2-  O1  1  0.92635000  0.03070000  0.96040000  1.0
  O2-  O1  1  0.42635000  0.53070000  0.46040000  1.0
  O2-  O1  1  0.92635000  0.53070000  0.46040000  1.0
  O2-  O1  1  0.42635000  0.53070000  0.96040000  1.0
  O2-  O1  1  0.92635000  0.53070000  0.96040000  1.0
  O2-  O1  1  0.05385000  0.17970000  0.46040000  1.0
  O2-  O1  1  0.55385000  0.17970000  0.46040000  1.0
  O2-  O1  1  0.05385000  0.17970000  0.96040000  1.0
  O2-  O1  1  0.55385000  0.17970000  0.96040000  1.0
  O2-  O1  1  0.05385000  0.67970000  0.46040000  1.0
  O2-  O1  1  0.55385000  0.67970000  0.46040000  1.0
  O2-  O1  1  0.05385000  0.67970000  0.96040000  1.0
  O2-  O1  1  0.55385000  0.67970000  0.96040000  1.0
  O2-  O1  1  0.30385000  0.17970000  0.46040000  1.0
  O2-  O1  1  0.80385000  0.17970000  0.46040000  1.0
  O2-  O1  1  0.30385000  0.17970000  0.96040000  1.0
  O2-  O1  1  0.80385000  0.17970000  0.96040000  1.0
  O2-  O1  1  0.30385000  0.67970000  0.46040000  1.0
  O2-  O1  1  0.80385000  0.67970000  0.46040000  1.0
  O2-  O1  1  0.30385000  0.67970000  0.96040000  1.0
  O2-  O1  1  0.80385000  0.67970000  0.96040000  1.0
