# generated using pymatgen
data_Li6PSe5Br
_symmetry_space_group_name_H-M   'P 1'
_cell_length_a   14.66709170
_cell_length_b   14.66709170
_cell_length_c   14.66709170
_cell_angle_alpha   60.00000000
_cell_angle_beta   60.00000000
_cell_angle_gamma   60.00000000
_symmetry_Int_Tables_number   1
_chemical_formula_structural   Li6PSe5Br
_chemical_formula_sum   'Li48 P8 Se40 Br8'
_cell_volume   2231.08966215
_cell_formula_units_Z   8
loop_
 _symmetry_equiv_pos_site_id
 _symmetry_equiv_pos_as_xyz
  1  'x, y, z'
loop_
 _atom_type_symbol
 _atom_type_oxidation_number
  Li+  1.0
  P5+  5.0
  Se2-  -2.0
  Br-  -1.0
loop_
 _atom_site_type_symbol
 _atom_site_label
 _atom_site_symmetry_multiplicity
 _atom_site_fract_x
 _atom_site_fract_y
 _atom_site_fract_z
 _atom_site_occupancy
  Li+  Li0  1  0.92250000  0.23250000  0.92250000  1.0
  Li+  Li1  1  0.15515000  0.51525000  0.31435000  1.0
  Li+  Li2  1  0.65515000  0.01525000  0.31435000  1.0
  Li+  Li3  1  0.01525000  0.81435000  0.15515000  1.0
  Li+  Li4  1  0.51525000  0.81435000  0.15515000  1.0
  Li+  Li5  1  0.31435000  0.51525000  0.51525000  1.0
  Li+  Li6  1  0.81435000  0.51525000  0.01525000  1.0
  Li+  Li7  1  0.31435000  0.01525000  0.15515000  1.0
  Li+  Li8  1  0.51525000  0.51525000  0.81435000  1.0
  Li+  Li9  1  0.01525000  0.01525000  0.65515000  1.0
  Li+  Li10  1  0.51525000  0.01525000  0.65515000  1.0
  Li+  Li11  1  0.01525000  0.65515000  0.81435000  1.0
  Li+  Li12  1  0.01525000  0.65515000  0.51525000  1.0
  Li+  Li13  1  0.51525000  0.65515000  0.51525000  1.0
  Li+  Li14  1  0.01525000  0.31435000  0.01525000  1.0
  Li+  Li15  1  0.01525000  0.81435000  0.01525000  1.0
  Li+  Li16  1  0.51525000  0.31435000  0.01525000  1.0
  Li+  Li17  1  0.31435000  0.65515000  0.01525000  1.0
  Li+  Li18  1  0.81435000  0.15515000  0.01525000  1.0
  Li+  Li19  1  0.81435000  0.15515000  0.51525000  1.0
  Li+  Li20  1  0.15515000  0.31435000  0.51525000  1.0
  Li+  Li21  1  0.11795000  0.11795000  0.93245000  1.0
  Li+  Li22  1  0.11795000  0.61795000  0.43245000  1.0
  Li+  Li23  1  0.61795000  0.61795000  0.43245000  1.0
  Li+  Li24  1  0.83165000  0.93245000  0.11795000  1.0
  Li+  Li25  1  0.93245000  0.33165000  0.61795000  1.0
  Li+  Li26  1  0.33165000  0.11795000  0.93245000  1.0
  Li+  Li27  1  0.33165000  0.61795000  0.43245000  1.0
  Li+  Li28  1  0.33165000  0.11795000  0.61795000  1.0
  Li+  Li29  1  0.33165000  0.61795000  0.11795000  1.0
  Li+  Li30  1  0.33165000  0.61795000  0.61795000  1.0
  Li+  Li31  1  0.83165000  0.61795000  0.61795000  1.0
  Li+  Li32  1  0.11795000  0.33165000  0.93245000  1.0
  Li+  Li33  1  0.61795000  0.33165000  0.43245000  1.0
  Li+  Li34  1  0.61795000  0.83165000  0.43245000  1.0
  Li+  Li35  1  0.11795000  0.83165000  0.11795000  1.0
  Li+  Li36  1  0.61795000  0.33165000  0.11795000  1.0
  Li+  Li37  1  0.61795000  0.33165000  0.61795000  1.0
  Li+  Li38  1  0.61795000  0.83165000  0.61795000  1.0
  Li+  Li39  1  0.43245000  0.11795000  0.33165000  1.0
  Li+  Li40  1  0.43245000  0.11795000  0.83165000  1.0
  Li+  Li41  1  0.43245000  0.61795000  0.83165000  1.0
  Li+  Li42  1  0.93245000  0.11795000  0.33165000  1.0
  Li+  Li43  1  0.93245000  0.11795000  0.83165000  1.0
  Li+  Li44  1  0.11795000  0.93245000  0.33165000  1.0
  Li+  Li45  1  0.61795000  0.93245000  0.83165000  1.0
  Li+  Li46  1  0.43245000  0.11795000  0.61795000  1.0
  Li+  Li47  1  0.93245000  0.61795000  0.61795000  1.0
  P5+  P1  1  0.25000000  0.25000000  0.25000000  1.0
  P5+  P1  1  0.25000000  0.25000000  0.75000000  1.0
  P5+  P1  1  0.25000000  0.75000000  0.25000000  1.0
  P5+  P1  1  0.25000000  0.75000000  0.75000000  1.0
  P5+  P1  1  0.75000000  0.25000000  0.25000000  1.0
  P5+  P1  1  0.75000000  0.25000000  0.75000000  1.0
  P5+  P1  1  0.75000000  0.75000000  0.25000000  1.0
  P5+  P1  1  0.75000000  0.75000000  0.75000000  1.0
  Se2-  Se2  1  0.31210000  0.06370000  0.31210000  1.0
  Se2-  Se2  1  0.31210000  0.06370000  0.81210000  1.0
  Se2-  Se2  1  0.31210000  0.56370000  0.31210000  1.0
  Se2-  Se2  1  0.31210000  0.56370000  0.81210000  1.0
  Se2-  Se2  1  0.81210000  0.06370000  0.31210000  1.0
  Se2-  Se2  1  0.81210000  0.06370000  0.81210000  1.0
  Se2-  Se2  1  0.81210000  0.56370000  0.31210000  1.0
  Se2-  Se2  1  0.81210000  0.56370000  0.81210000  1.0
  Se2-  Se2  1  0.31210000  0.31210000  0.31210000  1.0
  Se2-  Se2  1  0.31210000  0.31210000  0.81210000  1.0
  Se2-  Se2  1  0.31210000  0.81210000  0.31210000  1.0
  Se2-  Se2  1  0.31210000  0.81210000  0.81210000  1.0
  Se2-  Se2  1  0.81210000  0.31210000  0.31210000  1.0
  Se2-  Se2  1  0.81210000  0.31210000  0.81210000  1.0
  Se2-  Se2  1  0.81210000  0.81210000  0.31210000  1.0
  Se2-  Se2  1  0.81210000  0.81210000  0.81210000  1.0
  Se2-  Se2  1  0.31210000  0.31210000  0.06370000  1.0
  Se2-  Se2  1  0.31210000  0.31210000  0.56370000  1.0
  Se2-  Se2  1  0.31210000  0.81210000  0.06370000  1.0
  Se2-  Se2  1  0.31210000  0.81210000  0.56370000  1.0
  Se2-  Se2  1  0.81210000  0.31210000  0.06370000  1.0
  Se2-  Se2  1  0.81210000  0.31210000  0.56370000  1.0
  Se2-  Se2  1  0.81210000  0.81210000  0.06370000  1.0
  Se2-  Se2  1  0.81210000  0.81210000  0.56370000  1.0
  Se2-  Se2  1  0.06370000  0.31210000  0.31210000  1.0
  Se2-  Se2  1  0.06370000  0.31210000  0.81210000  1.0
  Se2-  Se2  1  0.06370000  0.81210000  0.31210000  1.0
  Se2-  Se2  1  0.06370000  0.81210000  0.81210000  1.0
  Se2-  Se2  1  0.56370000  0.31210000  0.31210000  1.0
  Se2-  Se2  1  0.56370000  0.31210000  0.81210000  1.0
  Se2-  Se2  1  0.56370000  0.81210000  0.31210000  1.0
  Se2-  Se2  1  0.56370000  0.81210000  0.81210000  1.0
  Se2-  Se88  1  0.00000000  0.00000000  0.00000000  1.0
  Se2-  Se89  1  0.00000000  0.00000000  0.50000000  1.0
  Se2-  Se90  1  0.00000000  0.50000000  0.50000000  1.0
  Se2-  Se91  1  0.50000000  0.00000000  0.50000000  1.0
  Se2-  Se92  1  0.12500000  0.12500000  0.62500000  1.0
  Se2-  Se93  1  0.12500000  0.62500000  0.12500000  1.0
  Se2-  Se94  1  0.62500000  0.12500000  0.62500000  1.0
  Se2-  Se95  1  0.62500000  0.62500000  0.62500000  1.0
  Br-  Br96  1  0.00000000  0.50000000  0.00000000  1.0
  Br-  Br97  1  0.50000000  0.00000000  0.00000000  1.0
  Br-  Br98  1  0.50000000  0.50000000  0.00000000  1.0
  Br-  Br99  1  0.50000000  0.50000000  0.50000000  1.0
  Br-  Br100  1  0.12500000  0.12500000  0.12500000  1.0
  Br-  Br101  1  0.12500000  0.62500000  0.62500000  1.0
  Br-  Br102  1  0.62500000  0.12500000  0.12500000  1.0
  Br-  Br103  1  0.62500000  0.62500000  0.12500000  1.0
