# generated using pymatgen
data_Li4Sn(SeS)2
_symmetry_space_group_name_H-M   'P 1'
_cell_length_a   12.96504000
_cell_length_b   14.62760000
_cell_length_c   16.15936000
_cell_angle_alpha   90.00000000
_cell_angle_beta   90.00000000
_cell_angle_gamma   90.00000000
_symmetry_Int_Tables_number   1
_chemical_formula_structural   Li4Sn(SeS)2
_chemical_formula_sum   'Li64 Sn16 Se32 S32'
_cell_volume   3064.58091837
_cell_formula_units_Z   16
loop_
 _symmetry_equiv_pos_site_id
 _symmetry_equiv_pos_as_xyz
  1  'x, y, z'
loop_
 _atom_type_symbol
 _atom_type_oxidation_number
  Li+  1.0
  Sn4+  4.0
  Se2-  -2.0
  S2-  -2.0
loop_
 _atom_site_type_symbol
 _atom_site_label
 _atom_site_symmetry_multiplicity
 _atom_site_fract_x
 _atom_site_fract_y
 _atom_site_fract_z
 _atom_site_occupancy
  Li+  Li0  1  0.31500000  0.40700000  0.62500000  1.0
  Li+  Li1  1  0.31500000  0.40700000  0.12500000  1.0
  Li+  Li2  1  0.81500000  0.40700000  0.62500000  1.0
  Li+  Li3  1  0.81500000  0.40700000  0.12500000  1.0
  Li+  Li4  1  0.18297216  0.58923668  0.37506607  1.0
  Li+  Li5  1  0.18500000  0.59300000  0.87500000  1.0
  Li+  Li6  1  0.68500000  0.59300000  0.37500000  1.0
  Li+  Li7  1  0.68763237  0.59277909  0.87142365  1.0
  Li+  Li8  1  0.06500000  0.09300000  0.37500000  1.0
  Li+  Li9  1  0.06500000  0.09300000  0.87500000  1.0
  Li+  Li10  1  0.56500000  0.09300000  0.37500000  1.0
  Li+  Li11  1  0.56500000  0.09300000  0.87500000  1.0
  Li+  Li12  1  0.43385845  0.90416385  0.62365421  1.0
  Li+  Li13  1  0.43500000  0.90700000  0.12500000  1.0
  Li+  Li14  1  0.93500000  0.90700000  0.62500000  1.0
  Li+  Li15  1  0.93500000  0.90700000  0.12500000  1.0
  Li+  Li16  1  0.33911736  0.17654667  0.74917914  1.0
  Li+  Li17  1  0.34125000  0.17470000  0.24885000  1.0
  Li+  Li18  1  0.84125000  0.17470000  0.74885000  1.0
  Li+  Li19  1  0.84125000  0.17470000  0.24885000  1.0
  Li+  Li20  1  0.15560294  0.82444667  0.50187888  1.0
  Li+  Li21  1  0.15875000  0.82530000  0.99885000  1.0
  Li+  Li22  1  0.65875000  0.82530000  0.49885000  1.0
  Li+  Li23  1  0.65948795  0.82433901  0.99418662  1.0
  Li+  Li24  1  0.09125000  0.32530000  0.25115000  1.0
  Li+  Li25  1  0.09125000  0.32530000  0.75115000  1.0
  Li+  Li26  1  0.58802645  0.32586589  0.24954992  1.0
  Li+  Li27  1  0.59125000  0.32530000  0.75115000  1.0
  Li+  Li28  1  0.09125000  0.32530000  0.49885000  1.0
  Li+  Li29  1  0.09125000  0.32530000  0.99885000  1.0
  Li+  Li30  1  0.59125000  0.32530000  0.49885000  1.0
  Li+  Li31  1  0.59125000  0.32530000  0.99885000  1.0
  Li+  Li32  1  0.34125000  0.17470000  0.50115000  1.0
  Li+  Li33  1  0.33919206  0.17289123  0.99995570  1.0
  Li+  Li34  1  0.84125000  0.17470000  0.50115000  1.0
  Li+  Li35  1  0.84125000  0.17470000  0.00115000  1.0
  Li+  Li36  1  0.15713368  0.82416207  0.25316149  1.0
  Li+  Li37  1  0.15875000  0.82530000  0.75115000  1.0
  Li+  Li38  1  0.65875000  0.82530000  0.25115000  1.0
  Li+  Li39  1  0.65875000  0.82530000  0.75115000  1.0
  Li+  Li40  1  0.40486809  0.67366447  0.50064177  1.0
  Li+  Li41  1  0.40875000  0.67470000  0.00115000  1.0
  Li+  Li42  1  0.90875000  0.67470000  0.50115000  1.0
  Li+  Li43  1  0.90875000  0.67470000  0.00115000  1.0
  Li+  Li44  1  0.40875000  0.67470000  0.74885000  1.0
  Li+  Li45  1  0.40875000  0.67470000  0.24885000  1.0
  Li+  Li46  1  0.90875000  0.67470000  0.74885000  1.0
  Li+  Li47  1  0.90875000  0.67470000  0.24885000  1.0
  Li+  Li48  1  0.26087851  0.99519630  0.74342497  1.0
  Li+  Li49  1  0.26187788  0.99704325  0.24188623  1.0
  Li+  Li50  1  0.76100000  0.99600000  0.74050000  1.0
  Li+  Li51  1  0.76100000  0.99600000  0.24050000  1.0
  Li+  Li52  1  0.73789170  0.00147329  0.48894921  1.0
  Li+  Li53  1  0.73900000  0.00400000  0.99050000  1.0
  Li+  Li54  1  0.01100000  0.50400000  0.25950000  1.0
  Li+  Li55  1  0.01236549  0.50526912  0.76113816  1.0
  Li+  Li56  1  0.51011603  0.50186451  0.25629204  1.0
  Li+  Li57  1  0.51234400  0.50199044  0.75840105  1.0
  Li+  Li58  1  0.26100000  0.99600000  0.50950000  1.0
  Li+  Li59  1  0.26100000  0.99600000  0.00950000  1.0
  Li+  Li60  1  0.48900000  0.49600000  0.50950000  1.0
  Li+  Li61  1  0.48774492  0.49415470  0.01053657  1.0
  Li+  Li62  1  0.98900000  0.49600000  0.50950000  1.0
  Li+  Li63  1  0.98900000  0.49600000  0.00950000  1.0
  Sn4+  Sn64  1  0.32140000  0.40900000  0.37500000  1.0
  Sn4+  Sn65  1  0.32140000  0.40900000  0.87500000  1.0
  Sn4+  Sn66  1  0.82140000  0.40900000  0.37500000  1.0
  Sn4+  Sn67  1  0.82140000  0.40900000  0.87500000  1.0
  Sn4+  Sn68  1  0.17860000  0.59100000  0.62500000  1.0
  Sn4+  Sn69  1  0.17103421  0.59276915  0.12483971  1.0
  Sn4+  Sn70  1  0.67860000  0.59100000  0.62500000  1.0
  Sn4+  Sn71  1  0.67860000  0.59100000  0.12500000  1.0
  Sn4+  Sn72  1  0.07140000  0.09100000  0.62500000  1.0
  Sn4+  Sn73  1  0.07140000  0.09100000  0.12500000  1.0
  Sn4+  Sn74  1  0.57140000  0.09100000  0.62500000  1.0
  Sn4+  Sn75  1  0.57724772  0.09188370  0.12783785  1.0
  Sn4+  Sn76  1  0.42860000  0.90900000  0.37500000  1.0
  Sn4+  Sn77  1  0.42860000  0.90900000  0.87500000  1.0
  Sn4+  Sn78  1  0.92860000  0.90900000  0.37500000  1.0
  Sn4+  Sn79  1  0.92860000  0.90900000  0.87500000  1.0
  Se2-  Se80  1  0.39281104  0.33861636  0.75202841  1.0
  Se2-  Se81  1  0.39130000  0.33747000  0.24940000  1.0
  Se2-  Se82  1  0.10870000  0.66253000  0.49940000  1.0
  Se2-  Se83  1  0.10870000  0.66253000  0.99940000  1.0
  Se2-  Se84  1  0.60870000  0.66253000  0.49940000  1.0
  Se2-  Se85  1  0.61261081  0.66574565  0.99926492  1.0
  Se2-  Se86  1  0.64130000  0.16253000  0.25060000  1.0
  Se2-  Se87  1  0.64130000  0.16253000  0.75060000  1.0
  Se2-  Se88  1  0.14130000  0.16253000  0.49940000  1.0
  Se2-  Se89  1  0.14130000  0.16253000  0.99940000  1.0
  Se2-  Se90  1  0.89130000  0.33747000  0.50060000  1.0
  Se2-  Se91  1  0.89130000  0.33747000  0.00060000  1.0
  Se2-  Se92  1  0.35870000  0.83747000  0.50060000  1.0
  Se2-  Se93  1  0.35857941  0.83866306  0.99827066  1.0
  Se2-  Se94  1  0.85870000  0.83747000  0.50060000  1.0
  Se2-  Se95  1  0.85870000  0.83747000  0.00060000  1.0
  Se2-  Se96  1  0.85966640  0.83644074  0.74625055  1.0
  Se2-  Se97  1  0.85870000  0.83747000  0.24940000  1.0
  Se2-  Se98  1  0.36489375  0.06967777  0.37355500  1.0
  Se2-  Se99  1  0.36610000  0.06850000  0.87500000  1.0
  Se2-  Se100  1  0.13390000  0.93150000  0.62500000  1.0
  Se2-  Se101  1  0.13390000  0.93150000  0.12500000  1.0
  Se2-  Se102  1  0.11610000  0.43150000  0.62500000  1.0
  Se2-  Se103  1  0.11610000  0.43150000  0.12500000  1.0
  Se2-  Se104  1  0.61610000  0.43150000  0.62500000  1.0
  Se2-  Se105  1  0.61344732  0.43398031  0.12579939  1.0
  Se2-  Se106  1  0.38380000  0.08420000  0.62500000  1.0
  Se2-  Se107  1  0.38380000  0.08420000  0.12500000  1.0
  Se2-  Se108  1  0.88380000  0.08420000  0.62500000  1.0
  Se2-  Se109  1  0.88478027  0.08555400  0.12624156  1.0
  Se2-  Se110  1  0.36620000  0.58420000  0.62500000  1.0
  Se2-  Se111  1  0.36692123  0.58430674  0.12545066  1.0
  S2-  S112  1  0.89263489  0.33942020  0.74844103  1.0
  S2-  S113  1  0.89130000  0.33747000  0.24940000  1.0
  S2-  S114  1  0.14130000  0.16253000  0.25060000  1.0
  S2-  S115  1  0.14130000  0.16253000  0.75060000  1.0
  S2-  S116  1  0.64182930  0.16221679  0.49935262  1.0
  S2-  S117  1  0.64130000  0.16253000  0.99940000  1.0
  S2-  S118  1  0.39130000  0.33747000  0.50060000  1.0
  S2-  S119  1  0.39130000  0.33747000  0.00060000  1.0
  S2-  S120  1  0.10870000  0.66253000  0.25060000  1.0
  S2-  S121  1  0.10870000  0.66253000  0.75060000  1.0
  S2-  S122  1  0.61212965  0.66409974  0.25304003  1.0
  S2-  S123  1  0.60870000  0.66253000  0.75060000  1.0
  S2-  S124  1  0.35870000  0.83747000  0.74940000  1.0
  S2-  S125  1  0.36173950  0.83949926  0.25124171  1.0
  S2-  S126  1  0.86610000  0.06850000  0.37500000  1.0
  S2-  S127  1  0.86610000  0.06850000  0.87500000  1.0
  S2-  S128  1  0.63390000  0.93150000  0.62500000  1.0
  S2-  S129  1  0.63390000  0.93150000  0.12500000  1.0
  S2-  S130  1  0.38185663  0.56988136  0.37386468  1.0
  S2-  S131  1  0.38390000  0.56850000  0.87500000  1.0
  S2-  S132  1  0.88225781  0.56884854  0.37188504  1.0
  S2-  S133  1  0.88390000  0.56850000  0.87500000  1.0
  S2-  S134  1  0.11392688  0.91547649  0.37425668  1.0
  S2-  S135  1  0.11880652  0.92027964  0.87445548  1.0
  S2-  S136  1  0.61717238  0.91585758  0.37711541  1.0
  S2-  S137  1  0.61620000  0.91580000  0.87500000  1.0
  S2-  S138  1  0.13380000  0.41580000  0.37500000  1.0
  S2-  S139  1  0.13380000  0.41580000  0.87500000  1.0
  S2-  S140  1  0.63380000  0.41580000  0.37500000  1.0
  S2-  S141  1  0.63380000  0.41580000  0.87500000  1.0
  S2-  S142  1  0.86620000  0.58420000  0.62500000  1.0
  S2-  S143  1  0.86620000  0.58420000  0.12500000  1.0
