# generated using pymatgen
data_Li4Sn(SeS)2
_symmetry_space_group_name_H-M   'P 1'
_cell_length_a   16.12752970
_cell_length_b   12.93950179
_cell_length_c   14.59878692
_cell_angle_alpha   90.00000000
_cell_angle_beta   90.00000000
_cell_angle_gamma   90.00000000
_symmetry_Int_Tables_number   1
_chemical_formula_structural   Li4Sn(SeS)2
_chemical_formula_sum   'Li64 Sn16 Se32 S32'
_cell_volume   3046.50696335
_cell_formula_units_Z   16
loop_
 _symmetry_equiv_pos_site_id
 _symmetry_equiv_pos_as_xyz
  1  'x, y, z'
loop_
 _atom_type_symbol
 _atom_type_oxidation_number
  Li+  1.0
  Sn4+  4.0
  Se2-  -2.0
  S2-  -2.0
loop_
 _atom_site_type_symbol
 _atom_site_label
 _atom_site_symmetry_multiplicity
 _atom_site_fract_x
 _atom_site_fract_y
 _atom_site_fract_z
 _atom_site_occupancy
  Li+  Li0  1  0.87500000  0.35166667  0.59300000  1.0
  Li+  Li1  1  0.37500000  0.35166667  0.59300000  1.0
  Li+  Li2  1  0.87500000  0.85166667  0.59300000  1.0
  Li+  Li3  1  0.37500000  0.85166667  0.59300000  1.0
  Li+  Li4  1  0.62500000  0.48166667  0.40700000  1.0
  Li+  Li5  1  0.12500000  0.48166667  0.40700000  1.0
  Li+  Li6  1  0.62500000  0.98166667  0.40700000  1.0
  Li+  Li7  1  0.12500000  0.98166667  0.40700000  1.0
  Li+  Li8  1  0.62500000  0.60166667  0.90700000  1.0
  Li+  Li9  1  0.12500000  0.60166667  0.90700000  1.0
  Li+  Li10  1  0.62500000  0.10166667  0.90700000  1.0
  Li+  Li11  1  0.12500000  0.10166667  0.90700000  1.0
  Li+  Li12  1  0.87500000  0.23166667  0.09300000  1.0
  Li+  Li13  1  0.37500000  0.23166667  0.09300000  1.0
  Li+  Li14  1  0.87500000  0.73166667  0.09300000  1.0
  Li+  Li15  1  0.37500000  0.73166667  0.09300000  1.0
  Li+  Li16  1  0.99885000  0.32541667  0.82530000  1.0
  Li+  Li17  1  0.49885000  0.32541667  0.82530000  1.0
  Li+  Li18  1  0.99885000  0.82541667  0.82530000  1.0
  Li+  Li19  1  0.49885000  0.82541667  0.82530000  1.0
  Li+  Li20  1  0.74885000  0.50791667  0.17470000  1.0
  Li+  Li21  1  0.24885000  0.50791667  0.17470000  1.0
  Li+  Li22  1  0.74885000  0.00791667  0.17470000  1.0
  Li+  Li23  1  0.24885000  0.00791667  0.17470000  1.0
  Li+  Li24  1  0.50115000  0.57541667  0.67470000  1.0
  Li+  Li25  1  0.00115000  0.57541667  0.67470000  1.0
  Li+  Li26  1  0.50115000  0.07541667  0.67470000  1.0
  Li+  Li27  1  0.00115000  0.07541667  0.67470000  1.0
  Li+  Li28  1  0.74885000  0.57541667  0.67470000  1.0
  Li+  Li29  1  0.24885000  0.57541667  0.67470000  1.0
  Li+  Li30  1  0.74885000  0.07541667  0.67470000  1.0
  Li+  Li31  1  0.24885000  0.07541667  0.67470000  1.0
  Li+  Li32  1  0.75115000  0.32541667  0.82530000  1.0
  Li+  Li33  1  0.25115000  0.32541667  0.82530000  1.0
  Li+  Li34  1  0.75115000  0.82541667  0.82530000  1.0
  Li+  Li35  1  0.25115000  0.82541667  0.82530000  1.0
  Li+  Li36  1  0.50115000  0.50791667  0.17470000  1.0
  Li+  Li37  1  0.00115000  0.50791667  0.17470000  1.0
  Li+  Li38  1  0.50115000  0.00791667  0.17470000  1.0
  Li+  Li39  1  0.00115000  0.00791667  0.17470000  1.0
  Li+  Li40  1  0.75115000  0.25791667  0.32530000  1.0
  Li+  Li41  1  0.25115000  0.25791667  0.32530000  1.0
  Li+  Li42  1  0.75115000  0.75791667  0.32530000  1.0
  Li+  Li43  1  0.25115000  0.75791667  0.32530000  1.0
  Li+  Li44  1  0.99885000  0.25791667  0.32530000  1.0
  Li+  Li45  1  0.49885000  0.25791667  0.32530000  1.0
  Li+  Li46  1  0.99885000  0.75791667  0.32530000  1.0
  Li+  Li47  1  0.49885000  0.75791667  0.32530000  1.0
  Li+  Li48  1  0.99050000  0.40566667  0.00400000  1.0
  Li+  Li49  1  0.49050000  0.40566667  0.00400000  1.0
  Li+  Li50  1  0.99050000  0.90566667  0.00400000  1.0
  Li+  Li51  1  0.49050000  0.90566667  0.00400000  1.0
  Li+  Li52  1  0.74050000  0.92766667  0.99600000  1.0
  Li+  Li53  1  0.24050000  0.92766667  0.99600000  1.0
  Li+  Li54  1  0.50950000  0.65566667  0.49600000  1.0
  Li+  Li55  1  0.00950000  0.65566667  0.49600000  1.0
  Li+  Li56  1  0.50950000  0.15566667  0.49600000  1.0
  Li+  Li57  1  0.00950000  0.15566667  0.49600000  1.0
  Li+  Li58  1  0.75950000  0.40566667  0.00400000  1.0
  Li+  Li59  1  0.25950000  0.40566667  0.00400000  1.0
  Li+  Li60  1  0.75950000  0.17766667  0.50400000  1.0
  Li+  Li61  1  0.25950000  0.17766667  0.50400000  1.0
  Li+  Li62  1  0.75950000  0.67766667  0.50400000  1.0
  Li+  Li63  1  0.25950000  0.67766667  0.50400000  1.0
  Sn4+  Sn64  1  0.62500000  0.34526667  0.59100000  1.0
  Sn4+  Sn65  1  0.12500000  0.34526667  0.59100000  1.0
  Sn4+  Sn66  1  0.62500000  0.84526667  0.59100000  1.0
  Sn4+  Sn67  1  0.12500000  0.84526667  0.59100000  1.0
  Sn4+  Sn68  1  0.87500000  0.48806667  0.40900000  1.0
  Sn4+  Sn69  1  0.37500000  0.48806667  0.40900000  1.0
  Sn4+  Sn70  1  0.87500000  0.98806667  0.40900000  1.0
  Sn4+  Sn71  1  0.37500000  0.98806667  0.40900000  1.0
  Sn4+  Sn72  1  0.87500000  0.59526667  0.90900000  1.0
  Sn4+  Sn73  1  0.37500000  0.59526667  0.90900000  1.0
  Sn4+  Sn74  1  0.87500000  0.09526667  0.90900000  1.0
  Sn4+  Sn75  1  0.37500000  0.09526667  0.90900000  1.0
  Sn4+  Sn76  1  0.62500000  0.23806667  0.09100000  1.0
  Sn4+  Sn77  1  0.12500000  0.23806667  0.09100000  1.0
  Sn4+  Sn78  1  0.62500000  0.73806667  0.09100000  1.0
  Sn4+  Sn79  1  0.12500000  0.73806667  0.09100000  1.0
  Se2-  Se80  1  0.99940000  0.27536667  0.66253000  1.0
  Se2-  Se81  1  0.49940000  0.27536667  0.66253000  1.0
  Se2-  Se82  1  0.74940000  0.55796667  0.33747000  1.0
  Se2-  Se83  1  0.24940000  0.55796667  0.33747000  1.0
  Se2-  Se84  1  0.74940000  0.05796667  0.33747000  1.0
  Se2-  Se85  1  0.24940000  0.05796667  0.33747000  1.0
  Se2-  Se86  1  0.50060000  0.02536667  0.83747000  1.0
  Se2-  Se87  1  0.00060000  0.02536667  0.83747000  1.0
  Se2-  Se88  1  0.74940000  0.52536667  0.83747000  1.0
  Se2-  Se89  1  0.24940000  0.52536667  0.83747000  1.0
  Se2-  Se90  1  0.75060000  0.77536667  0.66253000  1.0
  Se2-  Se91  1  0.25060000  0.77536667  0.66253000  1.0
  Se2-  Se92  1  0.75060000  0.30796667  0.16253000  1.0
  Se2-  Se93  1  0.25060000  0.30796667  0.16253000  1.0
  Se2-  Se94  1  0.75060000  0.80796667  0.16253000  1.0
  Se2-  Se95  1  0.25060000  0.80796667  0.16253000  1.0
  Se2-  Se96  1  0.99940000  0.80796667  0.16253000  1.0
  Se2-  Se97  1  0.49940000  0.80796667  0.16253000  1.0
  Se2-  Se98  1  0.62500000  0.30056667  0.93150000  1.0
  Se2-  Se99  1  0.12500000  0.30056667  0.93150000  1.0
  Se2-  Se100  1  0.87500000  0.53276667  0.06850000  1.0
  Se2-  Se101  1  0.37500000  0.53276667  0.06850000  1.0
  Se2-  Se102  1  0.87500000  0.55056667  0.56850000  1.0
  Se2-  Se103  1  0.37500000  0.55056667  0.56850000  1.0
  Se2-  Se104  1  0.87500000  0.05056667  0.56850000  1.0
  Se2-  Se105  1  0.37500000  0.05056667  0.56850000  1.0
  Se2-  Se106  1  0.87500000  0.28286667  0.91580000  1.0
  Se2-  Se107  1  0.37500000  0.28286667  0.91580000  1.0
  Se2-  Se108  1  0.87500000  0.78286667  0.91580000  1.0
  Se2-  Se109  1  0.37500000  0.78286667  0.91580000  1.0
  Se2-  Se110  1  0.87500000  0.30046667  0.41580000  1.0
  Se2-  Se111  1  0.37500000  0.30046667  0.41580000  1.0
  S2-  S112  1  0.99940000  0.77536667  0.66253000  1.0
  S2-  S113  1  0.49940000  0.77536667  0.66253000  1.0
  S2-  S114  1  0.50060000  0.52536667  0.83747000  1.0
  S2-  S115  1  0.00060000  0.52536667  0.83747000  1.0
  S2-  S116  1  0.74940000  0.02536667  0.83747000  1.0
  S2-  S117  1  0.24940000  0.02536667  0.83747000  1.0
  S2-  S118  1  0.75060000  0.27536667  0.66253000  1.0
  S2-  S119  1  0.25060000  0.27536667  0.66253000  1.0
  S2-  S120  1  0.50060000  0.55796667  0.33747000  1.0
  S2-  S121  1  0.00060000  0.55796667  0.33747000  1.0
  S2-  S122  1  0.50060000  0.05796667  0.33747000  1.0
  S2-  S123  1  0.00060000  0.05796667  0.33747000  1.0
  S2-  S124  1  0.99940000  0.30796667  0.16253000  1.0
  S2-  S125  1  0.49940000  0.30796667  0.16253000  1.0
  S2-  S126  1  0.62500000  0.80056667  0.93150000  1.0
  S2-  S127  1  0.12500000  0.80056667  0.93150000  1.0
  S2-  S128  1  0.87500000  0.03276667  0.06850000  1.0
  S2-  S129  1  0.37500000  0.03276667  0.06850000  1.0
  S2-  S130  1  0.62500000  0.28276667  0.43150000  1.0
  S2-  S131  1  0.12500000  0.28276667  0.43150000  1.0
  S2-  S132  1  0.62500000  0.78276667  0.43150000  1.0
  S2-  S133  1  0.12500000  0.78276667  0.43150000  1.0
  S2-  S134  1  0.62500000  0.55046667  0.08420000  1.0
  S2-  S135  1  0.12500000  0.55046667  0.08420000  1.0
  S2-  S136  1  0.62500000  0.05046667  0.08420000  1.0
  S2-  S137  1  0.12500000  0.05046667  0.08420000  1.0
  S2-  S138  1  0.62500000  0.53286667  0.58420000  1.0
  S2-  S139  1  0.12500000  0.53286667  0.58420000  1.0
  S2-  S140  1  0.62500000  0.03286667  0.58420000  1.0
  S2-  S141  1  0.12500000  0.03286667  0.58420000  1.0
  S2-  S142  1  0.87500000  0.80046667  0.41580000  1.0
  S2-  S143  1  0.37500000  0.80046667  0.41580000  1.0
