# generated using pymatgen
data_Li4Sn(SeS)2
_symmetry_space_group_name_H-M   'P 1'
_cell_length_a   12.96504000
_cell_length_b   16.15936000
_cell_length_c   14.62760000
_cell_angle_alpha   90.00000000
_cell_angle_beta   90.00000000
_cell_angle_gamma   90.00000000
_symmetry_Int_Tables_number   1
_chemical_formula_structural   Li4Sn(SeS)2
_chemical_formula_sum   'Li64 Sn16 Se32 S32'
_cell_volume   3064.58091837
_cell_formula_units_Z   16
loop_
 _symmetry_equiv_pos_site_id
 _symmetry_equiv_pos_as_xyz
  1  'x, y, z'
loop_
 _atom_type_symbol
 _atom_type_oxidation_number
  Li+  1.0
  Sn4+  4.0
  Se2-  -2.0
  S2-  -2.0
loop_
 _atom_site_type_symbol
 _atom_site_label
 _atom_site_symmetry_multiplicity
 _atom_site_fract_x
 _atom_site_fract_y
 _atom_site_fract_z
 _atom_site_occupancy
  Li+  Li1  1  0.31500000  0.12500000  0.59300000  1.0
  Li+  Li1  1  0.31500000  0.62500000  0.59300000  1.0
  Li+  Li1  1  0.81500000  0.12500000  0.59300000  1.0
  Li+  Li1  1  0.81500000  0.62500000  0.59300000  1.0
  Li+  Li1  1  0.18500000  0.37500000  0.40700000  1.0
  Li+  Li1  1  0.18500000  0.87500000  0.40700000  1.0
  Li+  Li1  1  0.68500000  0.37500000  0.40700000  1.0
  Li+  Li1  1  0.68500000  0.87500000  0.40700000  1.0
  Li+  Li1  1  0.06500000  0.37500000  0.90700000  1.0
  Li+  Li1  1  0.06500000  0.87500000  0.90700000  1.0
  Li+  Li1  1  0.56500000  0.37500000  0.90700000  1.0
  Li+  Li1  1  0.56500000  0.87500000  0.90700000  1.0
  Li+  Li1  1  0.43500000  0.12500000  0.09300000  1.0
  Li+  Li1  1  0.43500000  0.62500000  0.09300000  1.0
  Li+  Li1  1  0.93500000  0.12500000  0.09300000  1.0
  Li+  Li1  1  0.93500000  0.62500000  0.09300000  1.0
  Li+  Li2  1  0.34125000  0.00115000  0.82530000  1.0
  Li+  Li2  1  0.34125000  0.50115000  0.82530000  1.0
  Li+  Li2  1  0.84125000  0.00115000  0.82530000  1.0
  Li+  Li2  1  0.84125000  0.50115000  0.82530000  1.0
  Li+  Li2  1  0.15875000  0.25115000  0.17470000  1.0
  Li+  Li2  1  0.15875000  0.75115000  0.17470000  1.0
  Li+  Li2  1  0.65875000  0.25115000  0.17470000  1.0
  Li+  Li2  1  0.65875000  0.75115000  0.17470000  1.0
  Li+  Li2  1  0.09125000  0.49885000  0.67470000  1.0
  Li+  Li2  1  0.09125000  0.99885000  0.67470000  1.0
  Li+  Li2  1  0.59125000  0.49885000  0.67470000  1.0
  Li+  Li2  1  0.59125000  0.99885000  0.67470000  1.0
  Li+  Li2  1  0.09125000  0.25115000  0.67470000  1.0
  Li+  Li2  1  0.09125000  0.75115000  0.67470000  1.0
  Li+  Li2  1  0.59125000  0.25115000  0.67470000  1.0
  Li+  Li2  1  0.59125000  0.75115000  0.67470000  1.0
  Li+  Li2  1  0.34125000  0.24885000  0.82530000  1.0
  Li+  Li2  1  0.34125000  0.74885000  0.82530000  1.0
  Li+  Li2  1  0.84125000  0.24885000  0.82530000  1.0
  Li+  Li2  1  0.84125000  0.74885000  0.82530000  1.0
  Li+  Li2  1  0.15875000  0.49885000  0.17470000  1.0
  Li+  Li2  1  0.15875000  0.99885000  0.17470000  1.0
  Li+  Li2  1  0.65875000  0.49885000  0.17470000  1.0
  Li+  Li2  1  0.65875000  0.99885000  0.17470000  1.0
  Li+  Li2  1  0.40875000  0.24885000  0.32530000  1.0
  Li+  Li2  1  0.40875000  0.74885000  0.32530000  1.0
  Li+  Li2  1  0.90875000  0.24885000  0.32530000  1.0
  Li+  Li2  1  0.90875000  0.74885000  0.32530000  1.0
  Li+  Li2  1  0.40875000  0.00115000  0.32530000  1.0
  Li+  Li2  1  0.40875000  0.50115000  0.32530000  1.0
  Li+  Li2  1  0.90875000  0.00115000  0.32530000  1.0
  Li+  Li2  1  0.90875000  0.50115000  0.32530000  1.0
  Li+  Li24  1  0.26100000  0.00950000  0.00400000  1.0
  Li+  Li24  1  0.26100000  0.50950000  0.00400000  1.0
  Li+  Li25  1  0.76100000  0.00950000  0.00400000  1.0
  Li+  Li25  1  0.76100000  0.50950000  0.00400000  1.0
  Li+  Li26  1  0.73900000  0.25950000  0.99600000  1.0
  Li+  Li26  1  0.73900000  0.75950000  0.99600000  1.0
  Li+  Li27  1  0.01100000  0.49050000  0.49600000  1.0
  Li+  Li27  1  0.01100000  0.99050000  0.49600000  1.0
  Li+  Li28  1  0.51100000  0.49050000  0.49600000  1.0
  Li+  Li28  1  0.51100000  0.99050000  0.49600000  1.0
  Li+  Li29  1  0.26100000  0.24050000  0.00400000  1.0
  Li+  Li29  1  0.26100000  0.74050000  0.00400000  1.0
  Li+  Li30  1  0.48900000  0.24050000  0.50400000  1.0
  Li+  Li30  1  0.48900000  0.74050000  0.50400000  1.0
  Li+  Li31  1  0.98900000  0.24050000  0.50400000  1.0
  Li+  Li31  1  0.98900000  0.74050000  0.50400000  1.0
  Sn4+  Sn1  1  0.32140000  0.37500000  0.59100000  1.0
  Sn4+  Sn1  1  0.32140000  0.87500000  0.59100000  1.0
  Sn4+  Sn1  1  0.82140000  0.37500000  0.59100000  1.0
  Sn4+  Sn1  1  0.82140000  0.87500000  0.59100000  1.0
  Sn4+  Sn1  1  0.17860000  0.12500000  0.40900000  1.0
  Sn4+  Sn1  1  0.17860000  0.62500000  0.40900000  1.0
  Sn4+  Sn1  1  0.67860000  0.12500000  0.40900000  1.0
  Sn4+  Sn1  1  0.67860000  0.62500000  0.40900000  1.0
  Sn4+  Sn1  1  0.07140000  0.12500000  0.90900000  1.0
  Sn4+  Sn1  1  0.07140000  0.62500000  0.90900000  1.0
  Sn4+  Sn1  1  0.57140000  0.12500000  0.90900000  1.0
  Sn4+  Sn1  1  0.57140000  0.62500000  0.90900000  1.0
  Sn4+  Sn1  1  0.42860000  0.37500000  0.09100000  1.0
  Sn4+  Sn1  1  0.42860000  0.87500000  0.09100000  1.0
  Sn4+  Sn1  1  0.92860000  0.37500000  0.09100000  1.0
  Sn4+  Sn1  1  0.92860000  0.87500000  0.09100000  1.0
  Se2-  Se40  1  0.39130000  0.00060000  0.66253000  1.0
  Se2-  Se40  1  0.39130000  0.50060000  0.66253000  1.0
  Se2-  Se41  1  0.10870000  0.25060000  0.33747000  1.0
  Se2-  Se41  1  0.10870000  0.75060000  0.33747000  1.0
  Se2-  Se42  1  0.60870000  0.25060000  0.33747000  1.0
  Se2-  Se42  1  0.60870000  0.75060000  0.33747000  1.0
  Se2-  Se43  1  0.64130000  0.49940000  0.83747000  1.0
  Se2-  Se43  1  0.64130000  0.99940000  0.83747000  1.0
  Se2-  Se44  1  0.14130000  0.25060000  0.83747000  1.0
  Se2-  Se44  1  0.14130000  0.75060000  0.83747000  1.0
  Se2-  Se45  1  0.89130000  0.24940000  0.66253000  1.0
  Se2-  Se45  1  0.89130000  0.74940000  0.66253000  1.0
  Se2-  Se46  1  0.35870000  0.24940000  0.16253000  1.0
  Se2-  Se46  1  0.35870000  0.74940000  0.16253000  1.0
  Se2-  Se47  1  0.85870000  0.24940000  0.16253000  1.0
  Se2-  Se47  1  0.85870000  0.74940000  0.16253000  1.0
  Se2-  Se48  1  0.85870000  0.00060000  0.16253000  1.0
  Se2-  Se48  1  0.85870000  0.50060000  0.16253000  1.0
  Se2-  Se49  1  0.36610000  0.37500000  0.93150000  1.0
  Se2-  Se49  1  0.36610000  0.87500000  0.93150000  1.0
  Se2-  Se50  1  0.13390000  0.12500000  0.06850000  1.0
  Se2-  Se50  1  0.13390000  0.62500000  0.06850000  1.0
  Se2-  Se51  1  0.11610000  0.12500000  0.56850000  1.0
  Se2-  Se51  1  0.11610000  0.62500000  0.56850000  1.0
  Se2-  Se52  1  0.61610000  0.12500000  0.56850000  1.0
  Se2-  Se52  1  0.61610000  0.62500000  0.56850000  1.0
  Se2-  Se53  1  0.38380000  0.12500000  0.91580000  1.0
  Se2-  Se53  1  0.38380000  0.62500000  0.91580000  1.0
  Se2-  Se54  1  0.88380000  0.12500000  0.91580000  1.0
  Se2-  Se54  1  0.88380000  0.62500000  0.91580000  1.0
  Se2-  Se55  1  0.36620000  0.12500000  0.41580000  1.0
  Se2-  Se55  1  0.36620000  0.62500000  0.41580000  1.0
  S2-  S56  1  0.89130000  0.00060000  0.66253000  1.0
  S2-  S56  1  0.89130000  0.50060000  0.66253000  1.0
  S2-  S57  1  0.14130000  0.49940000  0.83747000  1.0
  S2-  S57  1  0.14130000  0.99940000  0.83747000  1.0
  S2-  S58  1  0.64130000  0.25060000  0.83747000  1.0
  S2-  S58  1  0.64130000  0.75060000  0.83747000  1.0
  S2-  S59  1  0.39130000  0.24940000  0.66253000  1.0
  S2-  S59  1  0.39130000  0.74940000  0.66253000  1.0
  S2-  S60  1  0.10870000  0.49940000  0.33747000  1.0
  S2-  S60  1  0.10870000  0.99940000  0.33747000  1.0
  S2-  S61  1  0.60870000  0.49940000  0.33747000  1.0
  S2-  S61  1  0.60870000  0.99940000  0.33747000  1.0
  S2-  S62  1  0.35870000  0.00060000  0.16253000  1.0
  S2-  S62  1  0.35870000  0.50060000  0.16253000  1.0
  S2-  S63  1  0.86610000  0.37500000  0.93150000  1.0
  S2-  S63  1  0.86610000  0.87500000  0.93150000  1.0
  S2-  S64  1  0.63390000  0.12500000  0.06850000  1.0
  S2-  S64  1  0.63390000  0.62500000  0.06850000  1.0
  S2-  S65  1  0.38390000  0.37500000  0.43150000  1.0
  S2-  S65  1  0.38390000  0.87500000  0.43150000  1.0
  S2-  S66  1  0.88390000  0.37500000  0.43150000  1.0
  S2-  S66  1  0.88390000  0.87500000  0.43150000  1.0
  S2-  S67  1  0.11620000  0.37500000  0.08420000  1.0
  S2-  S67  1  0.11620000  0.87500000  0.08420000  1.0
  S2-  S68  1  0.61620000  0.37500000  0.08420000  1.0
  S2-  S68  1  0.61620000  0.87500000  0.08420000  1.0
  S2-  S69  1  0.13380000  0.37500000  0.58420000  1.0
  S2-  S69  1  0.13380000  0.87500000  0.58420000  1.0
  S2-  S70  1  0.63380000  0.37500000  0.58420000  1.0
  S2-  S70  1  0.63380000  0.87500000  0.58420000  1.0
  S2-  S71  1  0.86620000  0.12500000  0.41580000  1.0
  S2-  S71  1  0.86620000  0.62500000  0.41580000  1.0
