# generated using pymatgen
data_LiH7C3NClO
_symmetry_space_group_name_H-M   'P 1'
_cell_length_a   17.51700000
_cell_length_b   15.96100000
_cell_length_c   6.39000000
_cell_angle_alpha   90.00000000
_cell_angle_beta   90.00000000
_cell_angle_gamma   81.17400000
_symmetry_Int_Tables_number   1
_chemical_formula_structural   LiH7C3NClO
_chemical_formula_sum   'Li12 H84 C36 N12 Cl12 O12'
_cell_volume   1765.41760586
_cell_formula_units_Z   12
loop_
 _symmetry_equiv_pos_site_id
 _symmetry_equiv_pos_as_xyz
  1  'x, y, z'
loop_
 _atom_type_symbol
 _atom_type_oxidation_number
  Li+  1.0
  H-  -1.0
  C4+  4.0
  N3-  -3.0
  Cl-  -1.0
  O2-  -2.0
loop_
 _atom_site_type_symbol
 _atom_site_label
 _atom_site_symmetry_multiplicity
 _atom_site_fract_x
 _atom_site_fract_y
 _atom_site_fract_z
 _atom_site_occupancy
  Li+  Li0  1  0.24696650  0.99104888  0.75791974  1.0
  Li+  Li1  1  0.58090000  0.99520000  0.75450000  1.0
  Li+  Li2  1  0.91423333  0.99520000  0.75450000  1.0
  Li+  Li3  1  0.08817193  0.50667807  0.25517929  1.0
  Li+  Li4  1  0.41910000  0.50480000  0.25450000  1.0
  Li+  Li5  1  0.75194789  0.50259487  0.25093743  1.0
  Li+  Li6  1  0.08576667  0.00480000  0.74550000  1.0
  Li+  Li7  1  0.41910000  0.00480000  0.74550000  1.0
  Li+  Li8  1  0.75243333  0.00480000  0.74550000  1.0
  Li+  Li9  1  0.24578503  0.49252200  0.24653110  1.0
  Li+  Li10  1  0.58090000  0.49520000  0.24550000  1.0
  Li+  Li11  1  0.91423333  0.49520000  0.24550000  1.0
  H-  H12  1  0.21983333  0.07750000  0.34420000  1.0
  H-  H13  1  0.54898282  0.07784022  0.34079834  1.0
  H-  H14  1  0.88287356  0.08038016  0.33882253  1.0
  H-  H15  1  0.11350000  0.42250000  0.84420000  1.0
  H-  H16  1  0.44683333  0.42250000  0.84420000  1.0
  H-  H17  1  0.78016667  0.42250000  0.84420000  1.0
  H-  H18  1  0.11350000  0.92250000  0.15580000  1.0
  H-  H19  1  0.44683333  0.92250000  0.15580000  1.0
  H-  H20  1  0.78016667  0.92250000  0.15580000  1.0
  H-  H21  1  0.21983333  0.57750000  0.65580000  1.0
  H-  H22  1  0.55316667  0.57750000  0.65580000  1.0
  H-  H23  1  0.88813097  0.57874577  0.65694364  1.0
  H-  H24  1  0.18876868  0.17725661  0.09677201  1.0
  H-  H25  1  0.52506547  0.17453118  0.09466498  1.0
  H-  H26  1  0.85586667  0.17600000  0.09490000  1.0
  H-  H27  1  0.14413333  0.32400000  0.59490000  1.0
  H-  H28  1  0.47746667  0.32400000  0.59490000  1.0
  H-  H29  1  0.81093058  0.32521344  0.59438527  1.0
  H-  H30  1  0.14413333  0.82400000  0.40510000  1.0
  H-  H31  1  0.47746667  0.82400000  0.40510000  1.0
  H-  H32  1  0.81080000  0.82400000  0.40510000  1.0
  H-  H33  1  0.18920000  0.67600000  0.90510000  1.0
  H-  H34  1  0.52270288  0.67776166  0.90494913  1.0
  H-  H35  1  0.85586667  0.67600000  0.90510000  1.0
  H-  H36  1  0.13213333  0.25840000  0.17080000  1.0
  H-  H37  1  0.46546667  0.25840000  0.17080000  1.0
  H-  H38  1  0.79880000  0.25840000  0.17080000  1.0
  H-  H39  1  0.20120000  0.24160000  0.67080000  1.0
  H-  H40  1  0.53453333  0.24160000  0.67080000  1.0
  H-  H41  1  0.86786667  0.24160000  0.67080000  1.0
  H-  H42  1  0.20120000  0.74160000  0.32920000  1.0
  H-  H43  1  0.53453333  0.74160000  0.32920000  1.0
  H-  H44  1  0.86922775  0.73902479  0.32851388  1.0
  H-  H45  1  0.13213333  0.75840000  0.82920000  1.0
  H-  H46  1  0.46546667  0.75840000  0.82920000  1.0
  H-  H47  1  0.80208774  0.76086920  0.83195329  1.0
  H-  H48  1  0.10109481  0.19121747  0.04087767  1.0
  H-  H49  1  0.43027017  0.18632898  0.03374427  1.0
  H-  H50  1  0.76603333  0.18710000  0.03620000  1.0
  H-  H51  1  0.23396667  0.31290000  0.53620000  1.0
  H-  H52  1  0.56723175  0.31305458  0.53442477  1.0
  H-  H53  1  0.90063333  0.31290000  0.53620000  1.0
  H-  H54  1  0.23396667  0.81290000  0.46380000  1.0
  H-  H55  1  0.56730000  0.81290000  0.46380000  1.0
  H-  H56  1  0.90063333  0.81290000  0.46380000  1.0
  H-  H57  1  0.09936667  0.68710000  0.96380000  1.0
  H-  H58  1  0.43229226  0.68622947  0.96309545  1.0
  H-  H59  1  0.76429723  0.69051979  0.96510379  1.0
  H-  H60  1  0.00640000  0.15530000  0.35280000  1.0
  H-  H61  1  0.34568932  0.15338637  0.35474391  1.0
  H-  H62  1  0.67306667  0.15530000  0.35280000  1.0
  H-  H63  1  0.32379445  0.34461231  0.85181041  1.0
  H-  H64  1  0.66026667  0.34470000  0.85280000  1.0
  H-  H65  1  0.99360000  0.34470000  0.85280000  1.0
  H-  H66  1  0.32693333  0.84470000  0.14720000  1.0
  H-  H67  1  0.66398908  0.84591981  0.15070092  1.0
  H-  H68  1  0.99360000  0.84470000  0.14720000  1.0
  H-  H69  1  0.00640000  0.65530000  0.64720000  1.0
  H-  H70  1  0.33973333  0.65530000  0.64720000  1.0
  H-  H71  1  0.67306667  0.65530000  0.64720000  1.0
  H-  H72  1  0.02881923  0.24332717  0.43300336  1.0
  H-  H73  1  0.36663333  0.24120000  0.43300000  1.0
  H-  H74  1  0.69996667  0.24120000  0.43300000  1.0
  H-  H75  1  0.30003333  0.25880000  0.93300000  1.0
  H-  H76  1  0.63336667  0.25880000  0.93300000  1.0
  H-  H77  1  0.96674059  0.26208301  0.92755860  1.0
  H-  H78  1  0.30003333  0.75880000  0.06700000  1.0
  H-  H79  1  0.63336667  0.75880000  0.06700000  1.0
  H-  H80  1  0.96670000  0.75880000  0.06700000  1.0
  H-  H81  1  0.03180378  0.74121034  0.57043438  1.0
  H-  H82  1  0.36663333  0.74120000  0.56700000  1.0
  H-  H83  1  0.69996667  0.74120000  0.56700000  1.0
  H-  H84  1  0.04676667  0.15810000  0.57680000  1.0
  H-  H85  1  0.37685952  0.16087923  0.57456762  1.0
  H-  H86  1  0.71343333  0.15810000  0.57680000  1.0
  H-  H87  1  0.28656667  0.34190000  0.07680000  1.0
  H-  H88  1  0.61990000  0.34190000  0.07680000  1.0
  H-  H89  1  0.95323333  0.34190000  0.07680000  1.0
  H-  H90  1  0.28656667  0.84190000  0.92320000  1.0
  H-  H91  1  0.61990000  0.84190000  0.92320000  1.0
  H-  H92  1  0.95323333  0.84190000  0.92320000  1.0
  H-  H93  1  0.04874330  0.65801439  0.42104186  1.0
  H-  H94  1  0.37796698  0.65893406  0.42201146  1.0
  H-  H95  1  0.71343333  0.65810000  0.42320000  1.0
  C4+  C96  1  0.17240000  0.09280000  0.41680000  1.0
  C4+  C97  1  0.50333190  0.09336658  0.41286584  1.0
  C4+  C98  1  0.83906667  0.09280000  0.41680000  1.0
  C4+  C99  1  0.16093333  0.40720000  0.91680000  1.0
  C4+  C100  1  0.49608988  0.40881240  0.91851834  1.0
  C4+  C101  1  0.82760000  0.40720000  0.91680000  1.0
  C4+  C102  1  0.16289845  0.90810827  0.08090250  1.0
  C4+  C103  1  0.49426667  0.90720000  0.08320000  1.0
  C4+  C104  1  0.82760000  0.90720000  0.08320000  1.0
  C4+  C105  1  0.17240000  0.59280000  0.58320000  1.0
  C4+  C106  1  0.50573333  0.59280000  0.58320000  1.0
  C4+  C107  1  0.83999040  0.59554819  0.57895829  1.0
  C4+  C108  1  0.14322177  0.19974092  0.14456481  1.0
  C4+  C109  1  0.47010000  0.19740000  0.14370000  1.0
  C4+  C110  1  0.80343333  0.19740000  0.14370000  1.0
  C4+  C111  1  0.20045558  0.30372268  0.64902688  1.0
  C4+  C112  1  0.52990000  0.30260000  0.64370000  1.0
  C4+  C113  1  0.86323333  0.30260000  0.64370000  1.0
  C4+  C114  1  0.19656667  0.80260000  0.35630000  1.0
  C4+  C115  1  0.52990000  0.80260000  0.35630000  1.0
  C4+  C116  1  0.86323333  0.80260000  0.35630000  1.0
  C4+  C117  1  0.13676667  0.69740000  0.85630000  1.0
  C4+  C118  1  0.47010000  0.69740000  0.85630000  1.0
  C4+  C119  1  0.80518710  0.69523072  0.85165380  1.0
  C4+  C120  1  0.04669930  0.17691922  0.43397399  1.0
  C4+  C121  1  0.37906667  0.17920000  0.43260000  1.0
  C4+  C122  1  0.71240000  0.17920000  0.43260000  1.0
  C4+  C123  1  0.28760000  0.32080000  0.93260000  1.0
  C4+  C124  1  0.62093333  0.32080000  0.93260000  1.0
  C4+  C125  1  0.95426667  0.32080000  0.93260000  1.0
  C4+  C126  1  0.28760000  0.82080000  0.06740000  1.0
  C4+  C127  1  0.62093333  0.82080000  0.06740000  1.0
  C4+  C128  1  0.95390665  0.82200202  0.06594733  1.0
  C4+  C129  1  0.04233161  0.67674505  0.56447900  1.0
  C4+  C130  1  0.37906667  0.67920000  0.56740000  1.0
  C4+  C131  1  0.71240000  0.67920000  0.56740000  1.0
  N3-  N132  1  0.11512667  0.15826256  0.33715511  1.0
  N3-  N133  1  0.45473333  0.15369000  0.33590000  1.0
  N3-  N134  1  0.78832852  0.15252651  0.33595777  1.0
  N3-  N135  1  0.21193333  0.34631000  0.83590000  1.0
  N3-  N136  1  0.54526667  0.34631000  0.83590000  1.0
  N3-  N137  1  0.87951161  0.34997054  0.83357149  1.0
  N3-  N138  1  0.21193333  0.84631000  0.16410000  1.0
  N3-  N139  1  0.54526667  0.84631000  0.16410000  1.0
  N3-  N140  1  0.87860000  0.84631000  0.16410000  1.0
  N3-  N141  1  0.12140000  0.65369000  0.66410000  1.0
  N3-  N142  1  0.45473333  0.65369000  0.66410000  1.0
  N3-  N143  1  0.78841376  0.65308466  0.66202813  1.0
  Cl-  Cl144  1  0.01247667  0.92192000  0.55001000  1.0
  Cl-  Cl145  1  0.34581000  0.92192000  0.55001000  1.0
  Cl-  Cl146  1  0.67914333  0.92192000  0.55001000  1.0
  Cl-  Cl147  1  0.32085667  0.57808000  0.05001000  1.0
  Cl-  Cl148  1  0.65311030  0.57726106  0.04976242  1.0
  Cl-  Cl149  1  0.98752333  0.57808000  0.05001000  1.0
  Cl-  Cl150  1  0.32085667  0.07808000  0.94999000  1.0
  Cl-  Cl151  1  0.65419000  0.07808000  0.94999000  1.0
  Cl-  Cl152  1  0.98752333  0.07808000  0.94999000  1.0
  Cl-  Cl153  1  0.01247667  0.42192000  0.44999000  1.0
  Cl-  Cl154  1  0.34581000  0.42192000  0.44999000  1.0
  Cl-  Cl155  1  0.67914333  0.42192000  0.44999000  1.0
  O2-  O156  1  0.16280000  0.05351000  0.58250000  1.0
  O2-  O157  1  0.49613333  0.05351000  0.58250000  1.0
  O2-  O158  1  0.82946667  0.05351000  0.58250000  1.0
  O2-  O159  1  0.17053333  0.44649000  0.08250000  1.0
  O2-  O160  1  0.50386667  0.44649000  0.08250000  1.0
  O2-  O161  1  0.83720000  0.44649000  0.08250000  1.0
  O2-  O162  1  0.17053333  0.94649000  0.91750000  1.0
  O2-  O163  1  0.50386667  0.94649000  0.91750000  1.0
  O2-  O164  1  0.83720000  0.94649000  0.91750000  1.0
  O2-  O165  1  0.16280000  0.55351000  0.41750000  1.0
  O2-  O166  1  0.49613333  0.55351000  0.41750000  1.0
  O2-  O167  1  0.82946667  0.55351000  0.41750000  1.0
