# generated using pymatgen
data_LiH7C3NClO
_symmetry_space_group_name_H-M   'P 1'
_cell_length_a   6.39063207
_cell_length_b   17.51873271
_cell_length_c   15.96257880
_cell_angle_alpha   81.17400000
_cell_angle_beta   90.00000000
_cell_angle_gamma   90.00000000
_symmetry_Int_Tables_number   1
_chemical_formula_structural   LiH7C3NClO
_chemical_formula_sum   'Li12 H84 C36 N12 Cl12 O12'
_cell_volume   1765.94154096
_cell_formula_units_Z   12
loop_
 _symmetry_equiv_pos_site_id
 _symmetry_equiv_pos_as_xyz
  1  'x, y, z'
loop_
 _atom_type_symbol
 _atom_type_oxidation_number
  Li+  1.0
  H-  -1.0
  C4+  4.0
  N3-  -3.0
  Cl-  -1.0
  O2-  -2.0
loop_
 _atom_site_type_symbol
 _atom_site_label
 _atom_site_symmetry_multiplicity
 _atom_site_fract_x
 _atom_site_fract_y
 _atom_site_fract_z
 _atom_site_occupancy
  Li+  Li0  1  0.00450000  0.41910000  0.00480000  1.0
  Li+  Li1  1  0.00450000  0.08576667  0.00480000  1.0
  Li+  Li2  1  0.00450000  0.75243333  0.00480000  1.0
  Li+  Li3  1  0.50450000  0.58090000  0.49520000  1.0
  Li+  Li4  1  0.50450000  0.24756667  0.49520000  1.0
  Li+  Li5  1  0.50450000  0.91423333  0.49520000  1.0
  Li+  Li6  1  0.99550000  0.58090000  0.99520000  1.0
  Li+  Li7  1  0.99550000  0.24756667  0.99520000  1.0
  Li+  Li8  1  0.99550000  0.91423333  0.99520000  1.0
  Li+  Li9  1  0.49550000  0.41910000  0.50480000  1.0
  Li+  Li10  1  0.49550000  0.08576667  0.50480000  1.0
  Li+  Li11  1  0.49550000  0.75243333  0.50480000  1.0
  H-  H12  1  0.59420000  0.44683333  0.92250000  1.0
  H-  H13  1  0.59420000  0.11350000  0.92250000  1.0
  H-  H14  1  0.59420000  0.78016667  0.92250000  1.0
  H-  H15  1  0.09420000  0.55316667  0.57750000  1.0
  H-  H16  1  0.09420000  0.21983333  0.57750000  1.0
  H-  H17  1  0.09420000  0.88650000  0.57750000  1.0
  H-  H18  1  0.40580000  0.55316667  0.07750000  1.0
  H-  H19  1  0.40580000  0.21983333  0.07750000  1.0
  H-  H20  1  0.40580000  0.88650000  0.07750000  1.0
  H-  H21  1  0.90580000  0.44683333  0.42250000  1.0
  H-  H22  1  0.90580000  0.11350000  0.42250000  1.0
  H-  H23  1  0.90580000  0.78016667  0.42250000  1.0
  H-  H24  1  0.34490000  0.47746667  0.82400000  1.0
  H-  H25  1  0.34490000  0.14413333  0.82400000  1.0
  H-  H26  1  0.34490000  0.81080000  0.82400000  1.0
  H-  H27  1  0.84490000  0.52253333  0.67600000  1.0
  H-  H28  1  0.84490000  0.18920000  0.67600000  1.0
  H-  H29  1  0.84490000  0.85586667  0.67600000  1.0
  H-  H30  1  0.65510000  0.52253333  0.17600000  1.0
  H-  H31  1  0.65510000  0.18920000  0.17600000  1.0
  H-  H32  1  0.65510000  0.85586667  0.17600000  1.0
  H-  H33  1  0.15510000  0.47746667  0.32400000  1.0
  H-  H34  1  0.15510000  0.14413333  0.32400000  1.0
  H-  H35  1  0.15510000  0.81080000  0.32400000  1.0
  H-  H36  1  0.42080000  0.53453333  0.74160000  1.0
  H-  H37  1  0.42080000  0.20120000  0.74160000  1.0
  H-  H38  1  0.42080000  0.86786667  0.74160000  1.0
  H-  H39  1  0.92080000  0.46546667  0.75840000  1.0
  H-  H40  1  0.92080000  0.13213333  0.75840000  1.0
  H-  H41  1  0.92080000  0.79880000  0.75840000  1.0
  H-  H42  1  0.57920000  0.46546667  0.25840000  1.0
  H-  H43  1  0.57920000  0.13213333  0.25840000  1.0
  H-  H44  1  0.57920000  0.79880000  0.25840000  1.0
  H-  H45  1  0.07920000  0.53453333  0.24160000  1.0
  H-  H46  1  0.07920000  0.20120000  0.24160000  1.0
  H-  H47  1  0.07920000  0.86786667  0.24160000  1.0
  H-  H48  1  0.28620000  0.56730000  0.81290000  1.0
  H-  H49  1  0.28620000  0.23396667  0.81290000  1.0
  H-  H50  1  0.28620000  0.90063333  0.81290000  1.0
  H-  H51  1  0.78620000  0.43270000  0.68710000  1.0
  H-  H52  1  0.78620000  0.09936667  0.68710000  1.0
  H-  H53  1  0.78620000  0.76603333  0.68710000  1.0
  H-  H54  1  0.71380000  0.43270000  0.18710000  1.0
  H-  H55  1  0.71380000  0.09936667  0.18710000  1.0
  H-  H56  1  0.71380000  0.76603333  0.18710000  1.0
  H-  H57  1  0.21380000  0.56730000  0.31290000  1.0
  H-  H58  1  0.21380000  0.23396667  0.31290000  1.0
  H-  H59  1  0.21380000  0.90063333  0.31290000  1.0
  H-  H60  1  0.60280000  0.66026667  0.84470000  1.0
  H-  H61  1  0.60280000  0.32693333  0.84470000  1.0
  H-  H62  1  0.60280000  0.99360000  0.84470000  1.0
  H-  H63  1  0.10280000  0.33973333  0.65530000  1.0
  H-  H64  1  0.10280000  0.00640000  0.65530000  1.0
  H-  H65  1  0.10280000  0.67306667  0.65530000  1.0
  H-  H66  1  0.39720000  0.33973333  0.15530000  1.0
  H-  H67  1  0.39720000  0.00640000  0.15530000  1.0
  H-  H68  1  0.39720000  0.67306667  0.15530000  1.0
  H-  H69  1  0.89720000  0.66026667  0.34470000  1.0
  H-  H70  1  0.89720000  0.32693333  0.34470000  1.0
  H-  H71  1  0.89720000  0.99360000  0.34470000  1.0
  H-  H72  1  0.68300000  0.63336667  0.75880000  1.0
  H-  H73  1  0.68300000  0.30003333  0.75880000  1.0
  H-  H74  1  0.68300000  0.96670000  0.75880000  1.0
  H-  H75  1  0.18300000  0.36663333  0.74120000  1.0
  H-  H76  1  0.18300000  0.03330000  0.74120000  1.0
  H-  H77  1  0.18300000  0.69996667  0.74120000  1.0
  H-  H78  1  0.31700000  0.36663333  0.24120000  1.0
  H-  H79  1  0.31700000  0.03330000  0.24120000  1.0
  H-  H80  1  0.31700000  0.69996667  0.24120000  1.0
  H-  H81  1  0.81700000  0.63336667  0.25880000  1.0
  H-  H82  1  0.81700000  0.30003333  0.25880000  1.0
  H-  H83  1  0.81700000  0.96670000  0.25880000  1.0
  H-  H84  1  0.82680000  0.61990000  0.84190000  1.0
  H-  H85  1  0.82680000  0.28656667  0.84190000  1.0
  H-  H86  1  0.82680000  0.95323333  0.84190000  1.0
  H-  H87  1  0.32680000  0.38010000  0.65810000  1.0
  H-  H88  1  0.32680000  0.04676667  0.65810000  1.0
  H-  H89  1  0.32680000  0.71343333  0.65810000  1.0
  H-  H90  1  0.17320000  0.38010000  0.15810000  1.0
  H-  H91  1  0.17320000  0.04676667  0.15810000  1.0
  H-  H92  1  0.17320000  0.71343333  0.15810000  1.0
  H-  H93  1  0.67320000  0.61990000  0.34190000  1.0
  H-  H94  1  0.67320000  0.28656667  0.34190000  1.0
  H-  H95  1  0.67320000  0.95323333  0.34190000  1.0
  C4+  C96  1  0.66680000  0.49426667  0.90720000  1.0
  C4+  C97  1  0.66680000  0.16093333  0.90720000  1.0
  C4+  C98  1  0.66680000  0.82760000  0.90720000  1.0
  C4+  C99  1  0.16680000  0.50573333  0.59280000  1.0
  C4+  C100  1  0.16680000  0.17240000  0.59280000  1.0
  C4+  C101  1  0.16680000  0.83906667  0.59280000  1.0
  C4+  C102  1  0.33320000  0.50573333  0.09280000  1.0
  C4+  C103  1  0.33320000  0.17240000  0.09280000  1.0
  C4+  C104  1  0.33320000  0.83906667  0.09280000  1.0
  C4+  C105  1  0.83320000  0.49426667  0.40720000  1.0
  C4+  C106  1  0.83320000  0.16093333  0.40720000  1.0
  C4+  C107  1  0.83320000  0.82760000  0.40720000  1.0
  C4+  C108  1  0.39370000  0.52990000  0.80260000  1.0
  C4+  C109  1  0.39370000  0.19656667  0.80260000  1.0
  C4+  C110  1  0.39370000  0.86323333  0.80260000  1.0
  C4+  C111  1  0.89370000  0.47010000  0.69740000  1.0
  C4+  C112  1  0.89370000  0.13676667  0.69740000  1.0
  C4+  C113  1  0.89370000  0.80343333  0.69740000  1.0
  C4+  C114  1  0.60630000  0.47010000  0.19740000  1.0
  C4+  C115  1  0.60630000  0.13676667  0.19740000  1.0
  C4+  C116  1  0.60630000  0.80343333  0.19740000  1.0
  C4+  C117  1  0.10630000  0.52990000  0.30260000  1.0
  C4+  C118  1  0.10630000  0.19656667  0.30260000  1.0
  C4+  C119  1  0.10630000  0.86323333  0.30260000  1.0
  C4+  C120  1  0.68260000  0.62093333  0.82080000  1.0
  C4+  C121  1  0.68260000  0.28760000  0.82080000  1.0
  C4+  C122  1  0.68260000  0.95426667  0.82080000  1.0
  C4+  C123  1  0.18260000  0.37906667  0.67920000  1.0
  C4+  C124  1  0.18260000  0.04573333  0.67920000  1.0
  C4+  C125  1  0.18260000  0.71240000  0.67920000  1.0
  C4+  C126  1  0.31740000  0.37906667  0.17920000  1.0
  C4+  C127  1  0.31740000  0.04573333  0.17920000  1.0
  C4+  C128  1  0.31740000  0.71240000  0.17920000  1.0
  C4+  C129  1  0.81740000  0.62093333  0.32080000  1.0
  C4+  C130  1  0.81740000  0.28760000  0.32080000  1.0
  C4+  C131  1  0.81740000  0.95426667  0.32080000  1.0
  N3-  N132  1  0.58590000  0.54526667  0.84631000  1.0
  N3-  N133  1  0.58590000  0.21193333  0.84631000  1.0
  N3-  N134  1  0.58590000  0.87860000  0.84631000  1.0
  N3-  N135  1  0.08590000  0.45473333  0.65369000  1.0
  N3-  N136  1  0.08590000  0.12140000  0.65369000  1.0
  N3-  N137  1  0.08590000  0.78806667  0.65369000  1.0
  N3-  N138  1  0.41410000  0.45473333  0.15369000  1.0
  N3-  N139  1  0.41410000  0.12140000  0.15369000  1.0
  N3-  N140  1  0.41410000  0.78806667  0.15369000  1.0
  N3-  N141  1  0.91410000  0.54526667  0.34631000  1.0
  N3-  N142  1  0.91410000  0.21193333  0.34631000  1.0
  N3-  N143  1  0.91410000  0.87860000  0.34631000  1.0
  Cl-  Cl144  1  0.80001000  0.65419000  0.07808000  1.0
  Cl-  Cl145  1  0.80001000  0.32085667  0.07808000  1.0
  Cl-  Cl146  1  0.80001000  0.98752333  0.07808000  1.0
  Cl-  Cl147  1  0.30001000  0.34581000  0.42192000  1.0
  Cl-  Cl148  1  0.30001000  0.01247667  0.42192000  1.0
  Cl-  Cl149  1  0.30001000  0.67914333  0.42192000  1.0
  Cl-  Cl150  1  0.19999000  0.34581000  0.92192000  1.0
  Cl-  Cl151  1  0.19999000  0.01247667  0.92192000  1.0
  Cl-  Cl152  1  0.19999000  0.67914333  0.92192000  1.0
  Cl-  Cl153  1  0.69999000  0.65419000  0.57808000  1.0
  Cl-  Cl154  1  0.69999000  0.32085667  0.57808000  1.0
  Cl-  Cl155  1  0.69999000  0.98752333  0.57808000  1.0
  O2-  O156  1  0.83250000  0.50386667  0.94649000  1.0
  O2-  O157  1  0.83250000  0.17053333  0.94649000  1.0
  O2-  O158  1  0.83250000  0.83720000  0.94649000  1.0
  O2-  O159  1  0.33250000  0.49613333  0.55351000  1.0
  O2-  O160  1  0.33250000  0.16280000  0.55351000  1.0
  O2-  O161  1  0.33250000  0.82946667  0.55351000  1.0
  O2-  O162  1  0.16750000  0.49613333  0.05351000  1.0
  O2-  O163  1  0.16750000  0.16280000  0.05351000  1.0
  O2-  O164  1  0.16750000  0.82946667  0.05351000  1.0
  O2-  O165  1  0.66750000  0.50386667  0.44649000  1.0
  O2-  O166  1  0.66750000  0.17053333  0.44649000  1.0
  O2-  O167  1  0.66750000  0.83720000  0.44649000  1.0
