# generated using pymatgen
data_LiH7C3NClO
_symmetry_space_group_name_H-M   'P 1'
_cell_length_a   17.51700000
_cell_length_b   6.39000000
_cell_length_c   15.96100000
_cell_angle_alpha   90.00000000
_cell_angle_beta   98.82600000
_cell_angle_gamma   90.00000000
_symmetry_Int_Tables_number   1
_chemical_formula_structural   LiH7C3NClO
_chemical_formula_sum   'Li12 H84 C36 N12 Cl12 O12'
_cell_volume   1765.41760586
_cell_formula_units_Z   12
loop_
 _symmetry_equiv_pos_site_id
 _symmetry_equiv_pos_as_xyz
  1  'x, y, z'
loop_
 _atom_type_symbol
 _atom_type_oxidation_number
  Li+  1.0
  H-  -1.0
  C4+  4.0
  N3-  -3.0
  Cl-  -1.0
  O2-  -2.0
loop_
 _atom_site_type_symbol
 _atom_site_label
 _atom_site_symmetry_multiplicity
 _atom_site_fract_x
 _atom_site_fract_y
 _atom_site_fract_z
 _atom_site_occupancy
  Li+  Li1  1  0.24756667  0.99550000  0.00480000  1.0
  Li+  Li1  1  0.58090000  0.99550000  0.00480000  1.0
  Li+  Li1  1  0.91423333  0.99550000  0.00480000  1.0
  Li+  Li1  1  0.08576667  0.49550000  0.49520000  1.0
  Li+  Li1  1  0.41910000  0.49550000  0.49520000  1.0
  Li+  Li1  1  0.75243333  0.49550000  0.49520000  1.0
  Li+  Li1  1  0.08576667  0.00450000  0.99520000  1.0
  Li+  Li1  1  0.41910000  0.00450000  0.99520000  1.0
  Li+  Li1  1  0.75243333  0.00450000  0.99520000  1.0
  Li+  Li1  1  0.24756667  0.50450000  0.50480000  1.0
  Li+  Li1  1  0.58090000  0.50450000  0.50480000  1.0
  Li+  Li1  1  0.91423333  0.50450000  0.50480000  1.0
  H-  H1  1  0.21983333  0.40580000  0.92250000  1.0
  H-  H1  1  0.55316667  0.40580000  0.92250000  1.0
  H-  H1  1  0.88650000  0.40580000  0.92250000  1.0
  H-  H1  1  0.11350000  0.90580000  0.57750000  1.0
  H-  H1  1  0.44683333  0.90580000  0.57750000  1.0
  H-  H1  1  0.78016667  0.90580000  0.57750000  1.0
  H-  H1  1  0.11350000  0.59420000  0.07750000  1.0
  H-  H1  1  0.44683333  0.59420000  0.07750000  1.0
  H-  H1  1  0.78016667  0.59420000  0.07750000  1.0
  H-  H1  1  0.21983333  0.09420000  0.42250000  1.0
  H-  H1  1  0.55316667  0.09420000  0.42250000  1.0
  H-  H1  1  0.88650000  0.09420000  0.42250000  1.0
  H-  H2  1  0.18920000  0.65510000  0.82400000  1.0
  H-  H2  1  0.52253333  0.65510000  0.82400000  1.0
  H-  H2  1  0.85586667  0.65510000  0.82400000  1.0
  H-  H2  1  0.14413333  0.15510000  0.67600000  1.0
  H-  H2  1  0.47746667  0.15510000  0.67600000  1.0
  H-  H2  1  0.81080000  0.15510000  0.67600000  1.0
  H-  H2  1  0.14413333  0.34490000  0.17600000  1.0
  H-  H2  1  0.47746667  0.34490000  0.17600000  1.0
  H-  H2  1  0.81080000  0.34490000  0.17600000  1.0
  H-  H2  1  0.18920000  0.84490000  0.32400000  1.0
  H-  H2  1  0.52253333  0.84490000  0.32400000  1.0
  H-  H2  1  0.85586667  0.84490000  0.32400000  1.0
  H-  H3  1  0.13213333  0.57920000  0.74160000  1.0
  H-  H3  1  0.46546667  0.57920000  0.74160000  1.0
  H-  H3  1  0.79880000  0.57920000  0.74160000  1.0
  H-  H3  1  0.20120000  0.07920000  0.75840000  1.0
  H-  H3  1  0.53453333  0.07920000  0.75840000  1.0
  H-  H3  1  0.86786667  0.07920000  0.75840000  1.0
  H-  H3  1  0.20120000  0.42080000  0.25840000  1.0
  H-  H3  1  0.53453333  0.42080000  0.25840000  1.0
  H-  H3  1  0.86786667  0.42080000  0.25840000  1.0
  H-  H3  1  0.13213333  0.92080000  0.24160000  1.0
  H-  H3  1  0.46546667  0.92080000  0.24160000  1.0
  H-  H3  1  0.79880000  0.92080000  0.24160000  1.0
  H-  H4  1  0.09936667  0.71380000  0.81290000  1.0
  H-  H4  1  0.43270000  0.71380000  0.81290000  1.0
  H-  H4  1  0.76603333  0.71380000  0.81290000  1.0
  H-  H4  1  0.23396667  0.21380000  0.68710000  1.0
  H-  H4  1  0.56730000  0.21380000  0.68710000  1.0
  H-  H4  1  0.90063333  0.21380000  0.68710000  1.0
  H-  H4  1  0.23396667  0.28620000  0.18710000  1.0
  H-  H4  1  0.56730000  0.28620000  0.18710000  1.0
  H-  H4  1  0.90063333  0.28620000  0.18710000  1.0
  H-  H4  1  0.09936667  0.78620000  0.31290000  1.0
  H-  H4  1  0.43270000  0.78620000  0.31290000  1.0
  H-  H4  1  0.76603333  0.78620000  0.31290000  1.0
  H-  H5  1  0.00640000  0.39720000  0.84470000  1.0
  H-  H5  1  0.33973333  0.39720000  0.84470000  1.0
  H-  H5  1  0.67306667  0.39720000  0.84470000  1.0
  H-  H5  1  0.32693333  0.89720000  0.65530000  1.0
  H-  H5  1  0.66026667  0.89720000  0.65530000  1.0
  H-  H5  1  0.99360000  0.89720000  0.65530000  1.0
  H-  H5  1  0.32693333  0.60280000  0.15530000  1.0
  H-  H5  1  0.66026667  0.60280000  0.15530000  1.0
  H-  H5  1  0.99360000  0.60280000  0.15530000  1.0
  H-  H5  1  0.00640000  0.10280000  0.34470000  1.0
  H-  H5  1  0.33973333  0.10280000  0.34470000  1.0
  H-  H5  1  0.67306667  0.10280000  0.34470000  1.0
  H-  H6  1  0.03330000  0.31700000  0.75880000  1.0
  H-  H6  1  0.36663333  0.31700000  0.75880000  1.0
  H-  H6  1  0.69996667  0.31700000  0.75880000  1.0
  H-  H6  1  0.30003333  0.81700000  0.74120000  1.0
  H-  H6  1  0.63336667  0.81700000  0.74120000  1.0
  H-  H6  1  0.96670000  0.81700000  0.74120000  1.0
  H-  H6  1  0.30003333  0.68300000  0.24120000  1.0
  H-  H6  1  0.63336667  0.68300000  0.24120000  1.0
  H-  H6  1  0.96670000  0.68300000  0.24120000  1.0
  H-  H6  1  0.03330000  0.18300000  0.25880000  1.0
  H-  H6  1  0.36663333  0.18300000  0.25880000  1.0
  H-  H6  1  0.69996667  0.18300000  0.25880000  1.0
  H-  H7  1  0.04676667  0.17320000  0.84190000  1.0
  H-  H7  1  0.38010000  0.17320000  0.84190000  1.0
  H-  H7  1  0.71343333  0.17320000  0.84190000  1.0
  H-  H7  1  0.28656667  0.67320000  0.65810000  1.0
  H-  H7  1  0.61990000  0.67320000  0.65810000  1.0
  H-  H7  1  0.95323333  0.67320000  0.65810000  1.0
  H-  H7  1  0.28656667  0.82680000  0.15810000  1.0
  H-  H7  1  0.61990000  0.82680000  0.15810000  1.0
  H-  H7  1  0.95323333  0.82680000  0.15810000  1.0
  H-  H7  1  0.04676667  0.32680000  0.34190000  1.0
  H-  H7  1  0.38010000  0.32680000  0.34190000  1.0
  H-  H7  1  0.71343333  0.32680000  0.34190000  1.0
  C4+  C1  1  0.17240000  0.33320000  0.90720000  1.0
  C4+  C1  1  0.50573333  0.33320000  0.90720000  1.0
  C4+  C1  1  0.83906667  0.33320000  0.90720000  1.0
  C4+  C1  1  0.16093333  0.83320000  0.59280000  1.0
  C4+  C1  1  0.49426667  0.83320000  0.59280000  1.0
  C4+  C1  1  0.82760000  0.83320000  0.59280000  1.0
  C4+  C1  1  0.16093333  0.66680000  0.09280000  1.0
  C4+  C1  1  0.49426667  0.66680000  0.09280000  1.0
  C4+  C1  1  0.82760000  0.66680000  0.09280000  1.0
  C4+  C1  1  0.17240000  0.16680000  0.40720000  1.0
  C4+  C1  1  0.50573333  0.16680000  0.40720000  1.0
  C4+  C1  1  0.83906667  0.16680000  0.40720000  1.0
  C4+  C2  1  0.13676667  0.60630000  0.80260000  1.0
  C4+  C2  1  0.47010000  0.60630000  0.80260000  1.0
  C4+  C2  1  0.80343333  0.60630000  0.80260000  1.0
  C4+  C2  1  0.19656667  0.10630000  0.69740000  1.0
  C4+  C2  1  0.52990000  0.10630000  0.69740000  1.0
  C4+  C2  1  0.86323333  0.10630000  0.69740000  1.0
  C4+  C2  1  0.19656667  0.39370000  0.19740000  1.0
  C4+  C2  1  0.52990000  0.39370000  0.19740000  1.0
  C4+  C2  1  0.86323333  0.39370000  0.19740000  1.0
  C4+  C2  1  0.13676667  0.89370000  0.30260000  1.0
  C4+  C2  1  0.47010000  0.89370000  0.30260000  1.0
  C4+  C2  1  0.80343333  0.89370000  0.30260000  1.0
  C4+  C3  1  0.04573333  0.31740000  0.82080000  1.0
  C4+  C3  1  0.37906667  0.31740000  0.82080000  1.0
  C4+  C3  1  0.71240000  0.31740000  0.82080000  1.0
  C4+  C3  1  0.28760000  0.81740000  0.67920000  1.0
  C4+  C3  1  0.62093333  0.81740000  0.67920000  1.0
  C4+  C3  1  0.95426667  0.81740000  0.67920000  1.0
  C4+  C3  1  0.28760000  0.68260000  0.17920000  1.0
  C4+  C3  1  0.62093333  0.68260000  0.17920000  1.0
  C4+  C3  1  0.95426667  0.68260000  0.17920000  1.0
  C4+  C3  1  0.04573333  0.18260000  0.32080000  1.0
  C4+  C3  1  0.37906667  0.18260000  0.32080000  1.0
  C4+  C3  1  0.71240000  0.18260000  0.32080000  1.0
  N3-  N1  1  0.12140000  0.41410000  0.84631000  1.0
  N3-  N1  1  0.45473333  0.41410000  0.84631000  1.0
  N3-  N1  1  0.78806667  0.41410000  0.84631000  1.0
  N3-  N1  1  0.21193333  0.91410000  0.65369000  1.0
  N3-  N1  1  0.54526667  0.91410000  0.65369000  1.0
  N3-  N1  1  0.87860000  0.91410000  0.65369000  1.0
  N3-  N1  1  0.21193333  0.58590000  0.15369000  1.0
  N3-  N1  1  0.54526667  0.58590000  0.15369000  1.0
  N3-  N1  1  0.87860000  0.58590000  0.15369000  1.0
  N3-  N1  1  0.12140000  0.08590000  0.34631000  1.0
  N3-  N1  1  0.45473333  0.08590000  0.34631000  1.0
  N3-  N1  1  0.78806667  0.08590000  0.34631000  1.0
  Cl-  Cl1  1  0.01247667  0.19999000  0.07808000  1.0
  Cl-  Cl1  1  0.34581000  0.19999000  0.07808000  1.0
  Cl-  Cl1  1  0.67914333  0.19999000  0.07808000  1.0
  Cl-  Cl1  1  0.32085667  0.69999000  0.42192000  1.0
  Cl-  Cl1  1  0.65419000  0.69999000  0.42192000  1.0
  Cl-  Cl1  1  0.98752333  0.69999000  0.42192000  1.0
  Cl-  Cl1  1  0.32085667  0.80001000  0.92192000  1.0
  Cl-  Cl1  1  0.65419000  0.80001000  0.92192000  1.0
  Cl-  Cl1  1  0.98752333  0.80001000  0.92192000  1.0
  Cl-  Cl1  1  0.01247667  0.30001000  0.57808000  1.0
  Cl-  Cl1  1  0.34581000  0.30001000  0.57808000  1.0
  Cl-  Cl1  1  0.67914333  0.30001000  0.57808000  1.0
  O2-  O1  1  0.16280000  0.16750000  0.94649000  1.0
  O2-  O1  1  0.49613333  0.16750000  0.94649000  1.0
  O2-  O1  1  0.82946667  0.16750000  0.94649000  1.0
  O2-  O1  1  0.17053333  0.66750000  0.55351000  1.0
  O2-  O1  1  0.50386667  0.66750000  0.55351000  1.0
  O2-  O1  1  0.83720000  0.66750000  0.55351000  1.0
  O2-  O1  1  0.17053333  0.83250000  0.05351000  1.0
  O2-  O1  1  0.50386667  0.83250000  0.05351000  1.0
  O2-  O1  1  0.83720000  0.83250000  0.05351000  1.0
  O2-  O1  1  0.16280000  0.33250000  0.44649000  1.0
  O2-  O1  1  0.49613333  0.33250000  0.44649000  1.0
  O2-  O1  1  0.82946667  0.33250000  0.44649000  1.0
