# generated using pymatgen
data_Li27La12Zr7TaO48
_symmetry_space_group_name_H-M   'P 1'
_cell_length_a   22.44772488
_cell_length_b   11.22386244
_cell_length_c   11.22386244
_cell_angle_alpha   109.47122063
_cell_angle_beta   70.52877937
_cell_angle_gamma   70.52877937
_symmetry_Int_Tables_number   1
_chemical_formula_structural   Li27La12Zr7TaO48
_chemical_formula_sum   'Li54 La24 Zr14 Ta2 O96'
_cell_volume   2176.88311597
_cell_formula_units_Z   2
loop_
 _symmetry_equiv_pos_site_id
 _symmetry_equiv_pos_as_xyz
  1  'x, y, z'
loop_
 _atom_type_symbol
 _atom_type_oxidation_number
  Li+  1.0
  La3+  3.0
  Zr4+  4.0
  Ta5+  5.0
  O2-  -2.0
loop_
 _atom_site_type_symbol
 _atom_site_label
 _atom_site_symmetry_multiplicity
 _atom_site_fract_x
 _atom_site_fract_y
 _atom_site_fract_z
 _atom_site_occupancy
  Li+  Li0  1  0.31250000  0.62500000  0.50000000  1.0
  Li+  Li1  1  0.81250000  0.62500000  0.50000000  1.0
  Li+  Li2  1  0.18750000  0.25000000  0.62500000  1.0
  Li+  Li3  1  0.68467801  0.25076757  0.62612670  1.0
  Li+  Li4  1  0.12500000  0.12500000  0.12500000  1.0
  Li+  Li5  1  0.62500000  0.12500000  0.12500000  1.0
  Li+  Li6  1  0.31250000  0.75000000  0.87500000  1.0
  Li+  Li7  1  0.81760272  0.74958596  0.87474915  1.0
  Li+  Li8  1  0.15450000  0.21500000  0.57200000  1.0
  Li+  Li9  1  0.65450000  0.21500000  0.57200000  1.0
  Li+  Li10  1  0.09550000  0.63100000  0.27400000  1.0
  Li+  Li11  1  0.59550000  0.63100000  0.27400000  1.0
  Li+  Li12  1  0.06883208  0.18184228  0.14562991  1.0
  Li+  Li13  1  0.56550000  0.17800000  0.14300000  1.0
  Li+  Li14  1  0.35682007  0.47822109  0.85202147  1.0
  Li+  Li15  1  0.85750000  0.47600000  0.85700000  1.0
  Li+  Li16  1  0.25793140  0.60726817  0.53862148  1.0
  Li+  Li17  1  0.76200000  0.60700000  0.53500000  1.0
  Li+  Li18  1  0.41100000  0.89300000  0.11900000  1.0
  Li+  Li19  1  0.90842208  0.88940433  0.11961527  1.0
  Li+  Li20  1  0.44650000  0.13100000  0.07200000  1.0
  Li+  Li21  1  0.94552406  0.12985518  0.07413083  1.0
  Li+  Li22  1  0.40450000  0.36900000  0.22600000  1.0
  Li+  Li23  1  0.90086594  0.37037564  0.22460843  1.0
  Li+  Li24  1  0.10750000  0.67800000  0.55900000  1.0
  Li+  Li25  1  0.60530096  0.67783702  0.55737125  1.0
  Li+  Li26  1  0.31550000  0.97600000  0.44100000  1.0
  Li+  Li27  1  0.81550000  0.97600000  0.44100000  1.0
  Li+  Li28  1  0.43450000  0.82200000  0.35700000  1.0
  Li+  Li29  1  0.93450000  0.82200000  0.35700000  1.0
  Li+  Li30  1  0.01200000  0.19100000  0.61900000  1.0
  Li+  Li31  1  0.51132453  0.18912000  0.62299547  1.0
  Li+  Li32  1  0.16100000  0.30900000  0.03500000  1.0
  Li+  Li33  1  0.66100000  0.30900000  0.03500000  1.0
  Li+  Li34  1  0.01200000  0.78500000  0.35700000  1.0
  Li+  Li35  1  0.51200000  0.78500000  0.35700000  1.0
  Li+  Li36  1  0.30350000  0.67800000  0.61900000  1.0
  Li+  Li37  1  0.80160376  0.67765014  0.61943362  1.0
  Li+  Li38  1  0.44650000  0.97600000  0.03500000  1.0
  Li+  Li39  1  0.94650000  0.97600000  0.03500000  1.0
  Li+  Li40  1  0.40450000  0.82200000  0.96500000  1.0
  Li+  Li41  1  0.90450000  0.82200000  0.96500000  1.0
  Li+  Li42  1  0.14250000  0.19100000  0.07200000  1.0
  Li+  Li43  1  0.64250000  0.19100000  0.07200000  1.0
  Li+  Li44  1  0.43222679  0.30757869  0.77626812  1.0
  Li+  Li45  1  0.93450000  0.30900000  0.77400000  1.0
  Li+  Li46  1  0.31550000  0.39300000  0.92800000  1.0
  Li+  Li47  1  0.81550000  0.39300000  0.92800000  1.0
  Li+  Li48  1  0.05350000  0.02400000  0.46500000  1.0
  Li+  Li49  1  0.55462252  0.02559164  0.46585627  1.0
  Li+  Li50  1  0.35750000  0.80900000  0.42800000  1.0
  Li+  Li51  1  0.85750000  0.80900000  0.42800000  1.0
  Li+  Li52  1  0.06550000  0.69100000  0.72600000  1.0
  Li+  Li53  1  0.56274387  0.69228726  0.72488022  1.0
  La3+  La54  1  0.37500000  0.62500000  0.12500000  1.0
  La3+  La55  1  0.87500000  0.62500000  0.12500000  1.0
  La3+  La56  1  0.12500000  0.87500000  0.87500000  1.0
  La3+  La57  1  0.62500000  0.87500000  0.87500000  1.0
  La3+  La58  1  0.06352370  0.61911932  0.00417919  1.0
  La3+  La59  1  0.56250000  0.62500000  0.00000000  1.0
  La3+  La60  1  0.18750000  0.87500000  0.50000000  1.0
  La3+  La61  1  0.68750000  0.87500000  0.50000000  1.0
  La3+  La62  1  0.18750000  0.75000000  0.12500000  1.0
  La3+  La63  1  0.68620192  0.74727549  0.12557672  1.0
  La3+  La64  1  0.06250000  0.25000000  0.87500000  1.0
  La3+  La65  1  0.56250000  0.25000000  0.87500000  1.0
  La3+  La66  1  0.12493531  0.37579984  0.37394859  1.0
  La3+  La67  1  0.62500000  0.37500000  0.37500000  1.0
  La3+  La68  1  0.37500000  0.12500000  0.62500000  1.0
  La3+  La69  1  0.87481311  0.12829067  0.62487498  1.0
  La3+  La70  1  0.43750000  0.37500000  0.50000000  1.0
  La3+  La71  1  0.93750000  0.37500000  0.50000000  1.0
  La3+  La72  1  0.31250000  0.12500000  0.00000000  1.0
  La3+  La73  1  0.81250000  0.12500000  0.00000000  1.0
  La3+  La74  1  0.31250000  0.25000000  0.37500000  1.0
  La3+  La75  1  0.81250000  0.25000000  0.37500000  1.0
  La3+  La76  1  0.43750000  0.75000000  0.62500000  1.0
  La3+  La77  1  0.93750000  0.75000000  0.62500000  1.0
  Zr4+  Zr78  1  0.00000000  0.50000000  0.75000000  1.0
  Zr4+  Zr79  1  0.50130583  0.50445417  0.74863567  1.0
  Zr4+  Zr80  1  0.25000000  0.50000000  0.25000000  1.0
  Zr4+  Zr81  1  0.75000000  0.50000000  0.25000000  1.0
  Zr4+  Zr82  1  0.00000000  0.00000000  0.25000000  1.0
  Zr4+  Zr83  1  0.50000000  0.00000000  0.25000000  1.0
  Zr4+  Zr84  1  0.25000000  0.00000000  0.75000000  1.0
  Zr4+  Zr85  1  0.75000000  0.00000000  0.75000000  1.0
  Zr4+  Zr86  1  0.00000000  0.50000000  0.25000000  1.0
  Zr4+  Zr87  1  0.49980102  0.50214946  0.25239690  1.0
  Zr4+  Zr88  1  0.25000000  0.00000000  0.25000000  1.0
  Zr4+  Zr89  1  0.75000000  0.00000000  0.25000000  1.0
  Zr4+  Zr90  1  0.00125608  0.99613807  0.74852118  1.0
  Zr4+  Zr91  1  0.50000000  0.00000000  0.75000000  1.0
  Ta5+  Ta92  1  0.24763551  0.49640614  0.74618366  1.0
  Ta5+  Ta93  1  0.75127124  0.50368469  0.74882105  1.0
  O2-  O94  1  0.45600000  0.68100000  0.22900000  1.0
  O2-  O95  1  0.95600000  0.68100000  0.22900000  1.0
  O2-  O96  1  0.29588832  0.89594747  0.34168990  1.0
  O2-  O97  1  0.79400000  0.89100000  0.34300000  1.0
  O2-  O98  1  0.14900000  0.60900000  0.77100000  1.0
  O2-  O99  1  0.64900000  0.60900000  0.77100000  1.0
  O2-  O100  1  0.10100000  0.81900000  0.65700000  1.0
  O2-  O101  1  0.60100000  0.81900000  0.65700000  1.0
  O2-  O102  1  0.19550000  0.52100000  0.95200000  1.0
  O2-  O103  1  0.69897989  0.51844054  0.95446396  1.0
  O2-  O104  1  0.09091140  0.40829263  0.04642766  1.0
  O2-  O105  1  0.59050000  0.40700000  0.04800000  1.0
  O2-  O106  1  0.15950000  0.97900000  0.33800000  1.0
  O2-  O107  1  0.65950000  0.97900000  0.33800000  1.0
  O2-  O108  1  0.05450000  0.09300000  0.66200000  1.0
  O2-  O109  1  0.55809878  0.09295351  0.65718301  1.0
  O2-  O110  1  0.29963854  0.80193422  0.06799082  1.0
  O2-  O111  1  0.79650000  0.79800000  0.06900000  1.0
  O2-  O112  1  0.23950000  0.70200000  0.85900000  1.0
  O2-  O113  1  0.73950000  0.70200000  0.85900000  1.0
  O2-  O114  1  0.45350000  0.41200000  0.14100000  1.0
  O2-  O115  1  0.95350000  0.41200000  0.14100000  1.0
  O2-  O116  1  0.01050000  0.08800000  0.93100000  1.0
  O2-  O117  1  0.51050000  0.08800000  0.93100000  1.0
  O2-  O118  1  0.04400000  0.31900000  0.27100000  1.0
  O2-  O119  1  0.54400000  0.31900000  0.27100000  1.0
  O2-  O120  1  0.20576900  0.10566744  0.15022273  1.0
  O2-  O121  1  0.70600000  0.10900000  0.15700000  1.0
  O2-  O122  1  0.35100000  0.39100000  0.72900000  1.0
  O2-  O123  1  0.85100000  0.39100000  0.72900000  1.0
  O2-  O124  1  0.39900000  0.18100000  0.84300000  1.0
  O2-  O125  1  0.89900000  0.18100000  0.84300000  1.0
  O2-  O126  1  0.30450000  0.47900000  0.54800000  1.0
  O2-  O127  1  0.80450000  0.47900000  0.54800000  1.0
  O2-  O128  1  0.40950000  0.59300000  0.45200000  1.0
  O2-  O129  1  0.90950000  0.59300000  0.45200000  1.0
  O2-  O130  1  0.33702022  0.02133843  0.16059327  1.0
  O2-  O131  1  0.84050000  0.02100000  0.16200000  1.0
  O2-  O132  1  0.44550000  0.90700000  0.83800000  1.0
  O2-  O133  1  0.94550000  0.90700000  0.83800000  1.0
  O2-  O134  1  0.20131086  0.20081865  0.43481005  1.0
  O2-  O135  1  0.70350000  0.20200000  0.43100000  1.0
  O2-  O136  1  0.25903482  0.29824599  0.64287094  1.0
  O2-  O137  1  0.76050000  0.29800000  0.64100000  1.0
  O2-  O138  1  0.04650000  0.58800000  0.35900000  1.0
  O2-  O139  1  0.54732327  0.58928328  0.35882389  1.0
  O2-  O140  1  0.48950000  0.91200000  0.56900000  1.0
  O2-  O141  1  0.98950000  0.91200000  0.56900000  1.0
  O2-  O142  1  0.04650000  0.31900000  0.54800000  1.0
  O2-  O143  1  0.54650000  0.31900000  0.54800000  1.0
  O2-  O144  1  0.48950000  0.10900000  0.45200000  1.0
  O2-  O145  1  0.98950000  0.10900000  0.45200000  1.0
  O2-  O146  1  0.20706340  0.38966417  0.16420627  1.0
  O2-  O147  1  0.70350000  0.39100000  0.16200000  1.0
  O2-  O148  1  0.26050000  0.18100000  0.83800000  1.0
  O2-  O149  1  0.76050000  0.18100000  0.83800000  1.0
  O2-  O150  1  0.20638212  0.47490262  0.43290054  1.0
  O2-  O151  1  0.70600000  0.47900000  0.43100000  1.0
  O2-  O152  1  0.04490938  0.59262017  0.64034000  1.0
  O2-  O153  1  0.54597231  0.58898800  0.64116636  1.0
  O2-  O154  1  0.39952890  0.02225874  0.35585476  1.0
  O2-  O155  1  0.89900000  0.02100000  0.35900000  1.0
  O2-  O156  1  0.35100000  0.90700000  0.56900000  1.0
  O2-  O157  1  0.85100000  0.90700000  0.56900000  1.0
  O2-  O158  1  0.44550000  0.20200000  0.27100000  1.0
  O2-  O159  1  0.94550000  0.20200000  0.27100000  1.0
  O2-  O160  1  0.34422180  0.29585842  0.15343078  1.0
  O2-  O161  1  0.84245865  0.29902673  0.15477789  1.0
  O2-  O162  1  0.40950000  0.58800000  0.72900000  1.0
  O2-  O163  1  0.90950000  0.58800000  0.72900000  1.0
  O2-  O164  1  0.30450000  0.91200000  0.84300000  1.0
  O2-  O165  1  0.80450000  0.91200000  0.84300000  1.0
  O2-  O166  1  0.45350000  0.68100000  0.95200000  1.0
  O2-  O167  1  0.95350000  0.68100000  0.95200000  1.0
  O2-  O168  1  0.01050000  0.89100000  0.04800000  1.0
  O2-  O169  1  0.51224733  0.89167236  0.04727467  1.0
  O2-  O170  1  0.29650000  0.60900000  0.33800000  1.0
  O2-  O171  1  0.79650000  0.60900000  0.33800000  1.0
  O2-  O172  1  0.23950000  0.81900000  0.66200000  1.0
  O2-  O173  1  0.73950000  0.81900000  0.66200000  1.0
  O2-  O174  1  0.29103689  0.52139309  0.06673008  1.0
  O2-  O175  1  0.79400000  0.52100000  0.06900000  1.0
  O2-  O176  1  0.46056102  0.40574229  0.85730235  1.0
  O2-  O177  1  0.95600000  0.40700000  0.85900000  1.0
  O2-  O178  1  0.10100000  0.97900000  0.14100000  1.0
  O2-  O179  1  0.60100000  0.97900000  0.14100000  1.0
  O2-  O180  1  0.15230634  0.09580666  0.93004756  1.0
  O2-  O181  1  0.64455034  0.08919711  0.93247270  1.0
  O2-  O182  1  0.05588822  0.79679838  0.22886130  1.0
  O2-  O183  1  0.55450000  0.79800000  0.22900000  1.0
  O2-  O184  1  0.15665131  0.70346453  0.34138328  1.0
  O2-  O185  1  0.65950000  0.70200000  0.34300000  1.0
  O2-  O186  1  0.09050000  0.41200000  0.77100000  1.0
  O2-  O187  1  0.59050000  0.41200000  0.77100000  1.0
  O2-  O188  1  0.19550000  0.08800000  0.65700000  1.0
  O2-  O189  1  0.69550000  0.08800000  0.65700000  1.0
