# generated using pymatgen
data_Li27La12Zr7TaO48
_symmetry_space_group_name_H-M   'P 1'
_cell_length_a   11.26764320
_cell_length_b   22.53528641
_cell_length_c   11.26764320
_cell_angle_alpha   70.52877937
_cell_angle_beta   70.52877937
_cell_angle_gamma   109.47122063
_symmetry_Int_Tables_number   1
_chemical_formula_structural   Li27La12Zr7TaO48
_chemical_formula_sum   'Li54 La24 Zr14 Ta2 O96'
_cell_volume   2202.45662294
_cell_formula_units_Z   2
loop_
 _symmetry_equiv_pos_site_id
 _symmetry_equiv_pos_as_xyz
  1  'x, y, z'
loop_
 _atom_type_symbol
 _atom_type_oxidation_number
  Li+  1.0
  La3+  3.0
  Zr4+  4.0
  Ta5+  5.0
  O2-  -2.0
loop_
 _atom_site_type_symbol
 _atom_site_label
 _atom_site_symmetry_multiplicity
 _atom_site_fract_x
 _atom_site_fract_y
 _atom_site_fract_z
 _atom_site_occupancy
  Li+  Li0  1  0.75000000  0.35416667  0.37500000  1.0
  Li+  Li1  1  0.75000000  0.85416667  0.37500000  1.0
  Li+  Li2  1  0.87500000  0.47916667  0.75000000  1.0
  Li+  Li3  1  0.87500000  0.97916667  0.75000000  1.0
  Li+  Li4  1  0.37500000  0.54166667  0.87500000  1.0
  Li+  Li5  1  0.37500000  0.04166667  0.87500000  1.0
  Li+  Li6  1  0.12500000  0.35416667  0.25000000  1.0
  Li+  Li7  1  0.12500000  0.85416667  0.25000000  1.0
  Li+  Li8  1  0.82200000  0.51216667  0.78500000  1.0
  Li+  Li9  1  0.82200000  0.01216667  0.78500000  1.0
  Li+  Li10  1  0.52400000  0.57116667  0.36900000  1.0
  Li+  Li11  1  0.52400000  0.07116667  0.36900000  1.0
  Li+  Li12  1  0.39300000  0.60116667  0.82200000  1.0
  Li+  Li13  1  0.39300000  0.10116667  0.82200000  1.0
  Li+  Li14  1  0.10700000  0.30916667  0.52400000  1.0
  Li+  Li15  1  0.10700000  0.80916667  0.52400000  1.0
  Li+  Li16  1  0.78500000  0.40466667  0.39300000  1.0
  Li+  Li17  1  0.78500000  0.90466667  0.39300000  1.0
  Li+  Li18  1  0.36900000  0.25566667  0.10700000  1.0
  Li+  Li19  1  0.36900000  0.75566667  0.10700000  1.0
  Li+  Li20  1  0.32200000  0.22016667  0.86900000  1.0
  Li+  Li21  1  0.32200000  0.72016667  0.86900000  1.0
  Li+  Li22  1  0.47600000  0.26216667  0.63100000  1.0
  Li+  Li23  1  0.47600000  0.76216667  0.63100000  1.0
  Li+  Li24  1  0.80900000  0.55916667  0.32200000  1.0
  Li+  Li25  1  0.80900000  0.05916667  0.32200000  1.0
  Li+  Li26  1  0.69100000  0.35116667  0.02400000  1.0
  Li+  Li27  1  0.69100000  0.85116667  0.02400000  1.0
  Li+  Li28  1  0.60700000  0.23216667  0.17800000  1.0
  Li+  Li29  1  0.60700000  0.73216667  0.17800000  1.0
  Li+  Li30  1  0.86900000  0.65466667  0.80900000  1.0
  Li+  Li31  1  0.86900000  0.15466667  0.80900000  1.0
  Li+  Li32  1  0.28500000  0.50566667  0.69100000  1.0
  Li+  Li33  1  0.28500000  0.00566667  0.69100000  1.0
  Li+  Li34  1  0.60700000  0.65466667  0.21500000  1.0
  Li+  Li35  1  0.60700000  0.15466667  0.21500000  1.0
  Li+  Li36  1  0.86900000  0.36316667  0.32200000  1.0
  Li+  Li37  1  0.86900000  0.86316667  0.32200000  1.0
  Li+  Li38  1  0.28500000  0.22016667  0.02400000  1.0
  Li+  Li39  1  0.28500000  0.72016667  0.02400000  1.0
  Li+  Li40  1  0.21500000  0.26216667  0.17800000  1.0
  Li+  Li41  1  0.21500000  0.76216667  0.17800000  1.0
  Li+  Li42  1  0.32200000  0.52416667  0.80900000  1.0
  Li+  Li43  1  0.32200000  0.02416667  0.80900000  1.0
  Li+  Li44  1  0.02400000  0.23216667  0.69100000  1.0
  Li+  Li45  1  0.02400000  0.73216667  0.69100000  1.0
  Li+  Li46  1  0.17800000  0.35116667  0.60700000  1.0
  Li+  Li47  1  0.17800000  0.85116667  0.60700000  1.0
  Li+  Li48  1  0.71500000  0.61316667  0.97600000  1.0
  Li+  Li49  1  0.71500000  0.11316667  0.97600000  1.0
  Li+  Li50  1  0.67800000  0.30916667  0.19100000  1.0
  Li+  Li51  1  0.67800000  0.80916667  0.19100000  1.0
  Li+  Li52  1  0.97600000  0.60116667  0.30900000  1.0
  Li+  Li53  1  0.97600000  0.10116667  0.30900000  1.0
  La3+  La54  1  0.37500000  0.29166667  0.37500000  1.0
  La3+  La55  1  0.37500000  0.79166667  0.37500000  1.0
  La3+  La56  1  0.12500000  0.54166667  0.12500000  1.0
  La3+  La57  1  0.12500000  0.04166667  0.12500000  1.0
  La3+  La58  1  0.25000000  0.60416667  0.37500000  1.0
  La3+  La59  1  0.25000000  0.10416667  0.37500000  1.0
  La3+  La60  1  0.75000000  0.47916667  0.12500000  1.0
  La3+  La61  1  0.75000000  0.97916667  0.12500000  1.0
  La3+  La62  1  0.37500000  0.47916667  0.25000000  1.0
  La3+  La63  1  0.37500000  0.97916667  0.25000000  1.0
  La3+  La64  1  0.12500000  0.60416667  0.75000000  1.0
  La3+  La65  1  0.12500000  0.10416667  0.75000000  1.0
  La3+  La66  1  0.62500000  0.54166667  0.62500000  1.0
  La3+  La67  1  0.62500000  0.04166667  0.62500000  1.0
  La3+  La68  1  0.87500000  0.29166667  0.87500000  1.0
  La3+  La69  1  0.87500000  0.79166667  0.87500000  1.0
  La3+  La70  1  0.75000000  0.22916667  0.62500000  1.0
  La3+  La71  1  0.75000000  0.72916667  0.62500000  1.0
  La3+  La72  1  0.25000000  0.35416667  0.87500000  1.0
  La3+  La73  1  0.25000000  0.85416667  0.87500000  1.0
  La3+  La74  1  0.62500000  0.35416667  0.75000000  1.0
  La3+  La75  1  0.62500000  0.85416667  0.75000000  1.0
  La3+  La76  1  0.87500000  0.22916667  0.25000000  1.0
  La3+  La77  1  0.87500000  0.72916667  0.25000000  1.0
  Zr4+  Zr78  1  0.00000000  0.66666667  0.50000000  1.0
  Zr4+  Zr79  1  0.00000000  0.16666667  0.50000000  1.0
  Zr4+  Zr80  1  0.50000000  0.41666667  0.50000000  1.0
  Zr4+  Zr81  1  0.50000000  0.91666667  0.50000000  1.0
  Zr4+  Zr82  1  0.50000000  0.66666667  0.00000000  1.0
  Zr4+  Zr83  1  0.50000000  0.16666667  0.00000000  1.0
  Zr4+  Zr84  1  0.00000000  0.41666667  0.00000000  1.0
  Zr4+  Zr85  1  0.00000000  0.91666667  0.00000000  1.0
  Zr4+  Zr86  1  0.50000000  0.66666667  0.50000000  1.0
  Zr4+  Zr87  1  0.50000000  0.16666667  0.50000000  1.0
  Zr4+  Zr88  1  0.50000000  0.41666667  0.00000000  1.0
  Zr4+  Zr89  1  0.50000000  0.91666667  0.00000000  1.0
  Zr4+  Zr90  1  0.00000000  0.66666667  0.00000000  1.0
  Zr4+  Zr91  1  0.00000000  0.16666667  0.00000000  1.0
  Ta5+  Ta92  1  0.00000000  0.41666667  0.50000000  1.0
  Ta5+  Ta93  1  0.00000000  0.91666667  0.50000000  1.0
  O2-  O94  1  0.47900000  0.21066667  0.31900000  1.0
  O2-  O95  1  0.47900000  0.71066667  0.31900000  1.0
  O2-  O96  1  0.59300000  0.37266667  0.10900000  1.0
  O2-  O97  1  0.59300000  0.87266667  0.10900000  1.0
  O2-  O98  1  0.02100000  0.51766667  0.39100000  1.0
  O2-  O99  1  0.02100000  0.01766667  0.39100000  1.0
  O2-  O100  1  0.90700000  0.56566667  0.18100000  1.0
  O2-  O101  1  0.90700000  0.06566667  0.18100000  1.0
  O2-  O102  1  0.20200000  0.47116667  0.47900000  1.0
  O2-  O103  1  0.20200000  0.97116667  0.47900000  1.0
  O2-  O104  1  0.29800000  0.57616667  0.59300000  1.0
  O2-  O105  1  0.29800000  0.07616667  0.59300000  1.0
  O2-  O106  1  0.58800000  0.50716667  0.02100000  1.0
  O2-  O107  1  0.58800000  0.00716667  0.02100000  1.0
  O2-  O108  1  0.91200000  0.61216667  0.90700000  1.0
  O2-  O109  1  0.91200000  0.11216667  0.90700000  1.0
  O2-  O110  1  0.31900000  0.37016667  0.20200000  1.0
  O2-  O111  1  0.31900000  0.87016667  0.20200000  1.0
  O2-  O112  1  0.10900000  0.42716667  0.29800000  1.0
  O2-  O113  1  0.10900000  0.92716667  0.29800000  1.0
  O2-  O114  1  0.39100000  0.21316667  0.58800000  1.0
  O2-  O115  1  0.39100000  0.71316667  0.58800000  1.0
  O2-  O116  1  0.18100000  0.65616667  0.91200000  1.0
  O2-  O117  1  0.18100000  0.15616667  0.91200000  1.0
  O2-  O118  1  0.52100000  0.62266667  0.68100000  1.0
  O2-  O119  1  0.52100000  0.12266667  0.68100000  1.0
  O2-  O120  1  0.40700000  0.46066667  0.89100000  1.0
  O2-  O121  1  0.40700000  0.96066667  0.89100000  1.0
  O2-  O122  1  0.97900000  0.31566667  0.60900000  1.0
  O2-  O123  1  0.97900000  0.81566667  0.60900000  1.0
  O2-  O124  1  0.09300000  0.26766667  0.81900000  1.0
  O2-  O125  1  0.09300000  0.76766667  0.81900000  1.0
  O2-  O126  1  0.79800000  0.36216667  0.52100000  1.0
  O2-  O127  1  0.79800000  0.86216667  0.52100000  1.0
  O2-  O128  1  0.70200000  0.25716667  0.40700000  1.0
  O2-  O129  1  0.70200000  0.75716667  0.40700000  1.0
  O2-  O130  1  0.41200000  0.32616667  0.97900000  1.0
  O2-  O131  1  0.41200000  0.82616667  0.97900000  1.0
  O2-  O132  1  0.08800000  0.22116667  0.09300000  1.0
  O2-  O133  1  0.08800000  0.72116667  0.09300000  1.0
  O2-  O134  1  0.68100000  0.46316667  0.79800000  1.0
  O2-  O135  1  0.68100000  0.96316667  0.79800000  1.0
  O2-  O136  1  0.89100000  0.40616667  0.70200000  1.0
  O2-  O137  1  0.89100000  0.90616667  0.70200000  1.0
  O2-  O138  1  0.60900000  0.62016667  0.41200000  1.0
  O2-  O139  1  0.60900000  0.12016667  0.41200000  1.0
  O2-  O140  1  0.81900000  0.17716667  0.08800000  1.0
  O2-  O141  1  0.81900000  0.67716667  0.08800000  1.0
  O2-  O142  1  0.79800000  0.62016667  0.68100000  1.0
  O2-  O143  1  0.79800000  0.12016667  0.68100000  1.0
  O2-  O144  1  0.70200000  0.17716667  0.89100000  1.0
  O2-  O145  1  0.70200000  0.67716667  0.89100000  1.0
  O2-  O146  1  0.41200000  0.46316667  0.60900000  1.0
  O2-  O147  1  0.41200000  0.96316667  0.60900000  1.0
  O2-  O148  1  0.08800000  0.40616667  0.81900000  1.0
  O2-  O149  1  0.08800000  0.90616667  0.81900000  1.0
  O2-  O150  1  0.68100000  0.46066667  0.52100000  1.0
  O2-  O151  1  0.68100000  0.96066667  0.52100000  1.0
  O2-  O152  1  0.89100000  0.62266667  0.40700000  1.0
  O2-  O153  1  0.89100000  0.12266667  0.40700000  1.0
  O2-  O154  1  0.60900000  0.26766667  0.97900000  1.0
  O2-  O155  1  0.60900000  0.76766667  0.97900000  1.0
  O2-  O156  1  0.81900000  0.31566667  0.09300000  1.0
  O2-  O157  1  0.81900000  0.81566667  0.09300000  1.0
  O2-  O158  1  0.52100000  0.22116667  0.79800000  1.0
  O2-  O159  1  0.52100000  0.72116667  0.79800000  1.0
  O2-  O160  1  0.40700000  0.32616667  0.70200000  1.0
  O2-  O161  1  0.40700000  0.82616667  0.70200000  1.0
  O2-  O162  1  0.97900000  0.25716667  0.41200000  1.0
  O2-  O163  1  0.97900000  0.75716667  0.41200000  1.0
  O2-  O164  1  0.09300000  0.36216667  0.08800000  1.0
  O2-  O165  1  0.09300000  0.86216667  0.08800000  1.0
  O2-  O166  1  0.20200000  0.21316667  0.31900000  1.0
  O2-  O167  1  0.20200000  0.71316667  0.31900000  1.0
  O2-  O168  1  0.29800000  0.65616667  0.10900000  1.0
  O2-  O169  1  0.29800000  0.15616667  0.10900000  1.0
  O2-  O170  1  0.58800000  0.37016667  0.39100000  1.0
  O2-  O171  1  0.58800000  0.87016667  0.39100000  1.0
  O2-  O172  1  0.91200000  0.42716667  0.18100000  1.0
  O2-  O173  1  0.91200000  0.92716667  0.18100000  1.0
  O2-  O174  1  0.31900000  0.37266667  0.47900000  1.0
  O2-  O175  1  0.31900000  0.87266667  0.47900000  1.0
  O2-  O176  1  0.10900000  0.21066667  0.59300000  1.0
  O2-  O177  1  0.10900000  0.71066667  0.59300000  1.0
  O2-  O178  1  0.39100000  0.56566667  0.02100000  1.0
  O2-  O179  1  0.39100000  0.06566667  0.02100000  1.0
  O2-  O180  1  0.18100000  0.51766667  0.90700000  1.0
  O2-  O181  1  0.18100000  0.01766667  0.90700000  1.0
  O2-  O182  1  0.47900000  0.61216667  0.20200000  1.0
  O2-  O183  1  0.47900000  0.11216667  0.20200000  1.0
  O2-  O184  1  0.59300000  0.50716667  0.29800000  1.0
  O2-  O185  1  0.59300000  0.00716667  0.29800000  1.0
  O2-  O186  1  0.02100000  0.57616667  0.58800000  1.0
  O2-  O187  1  0.02100000  0.07616667  0.58800000  1.0
  O2-  O188  1  0.90700000  0.47116667  0.91200000  1.0
  O2-  O189  1  0.90700000  0.97116667  0.91200000  1.0
