# generated using pymatgen
data_Li27La12Zr7TaO48
_symmetry_space_group_name_H-M   'P 1'
_cell_length_a   22.44772488
_cell_length_b   11.22386244
_cell_length_c   11.22386244
_cell_angle_alpha   109.47122063
_cell_angle_beta   109.47122063
_cell_angle_gamma   109.47122063
_symmetry_Int_Tables_number   1
_chemical_formula_structural   Li27La12Zr7TaO48
_chemical_formula_sum   'Li54 La24 Zr14 Ta2 O96'
_cell_volume   2176.88311597
_cell_formula_units_Z   2
loop_
 _symmetry_equiv_pos_site_id
 _symmetry_equiv_pos_as_xyz
  1  'x, y, z'
loop_
 _atom_type_symbol
 _atom_type_oxidation_number
  Li+  1.0
  La3+  3.0
  Zr4+  4.0
  Ta5+  5.0
  O2-  -2.0
loop_
 _atom_site_type_symbol
 _atom_site_label
 _atom_site_symmetry_multiplicity
 _atom_site_fract_x
 _atom_site_fract_y
 _atom_site_fract_z
 _atom_site_occupancy
  Li+  Li0  1  0.31250000  0.25000000  0.37500000  1.0
  Li+  Li0  1  0.81250000  0.25000000  0.37500000  1.0
  Li+  Li1  1  0.18750000  0.12500000  0.75000000  1.0
  Li+  Li1  1  0.68750000  0.12500000  0.75000000  1.0
  Li+  Li2  1  0.12500000  0.62500000  0.87500000  1.0
  Li+  Li2  1  0.62500000  0.62500000  0.87500000  1.0
  Li+  Li3  1  0.31250000  0.87500000  0.25000000  1.0
  Li+  Li3  1  0.81250000  0.87500000  0.25000000  1.0
  Li+  Li4  1  0.15450000  0.17800000  0.78500000  1.0
  Li+  Li4  1  0.65450000  0.17800000  0.78500000  1.0
  Li+  Li5  1  0.09550000  0.47600000  0.36900000  1.0
  Li+  Li5  1  0.59550000  0.47600000  0.36900000  1.0
  Li+  Li6  1  0.06550000  0.60700000  0.82200000  1.0
  Li+  Li6  1  0.56550000  0.60700000  0.82200000  1.0
  Li+  Li7  1  0.35750000  0.89300000  0.52400000  1.0
  Li+  Li7  1  0.85750000  0.89300000  0.52400000  1.0
  Li+  Li8  1  0.26200000  0.21500000  0.39300000  1.0
  Li+  Li8  1  0.76200000  0.21500000  0.39300000  1.0
  Li+  Li9  1  0.41100000  0.63100000  0.10700000  1.0
  Li+  Li9  1  0.91100000  0.63100000  0.10700000  1.0
  Li+  Li10  1  0.44650000  0.67800000  0.86900000  1.0
  Li+  Li10  1  0.94650000  0.67800000  0.86900000  1.0
  Li+  Li11  1  0.40450000  0.52400000  0.63100000  1.0
  Li+  Li11  1  0.90450000  0.52400000  0.63100000  1.0
  Li+  Li12  1  0.10750000  0.19100000  0.32200000  1.0
  Li+  Li12  1  0.60750000  0.19100000  0.32200000  1.0
  Li+  Li13  1  0.31550000  0.30900000  0.02400000  1.0
  Li+  Li13  1  0.81550000  0.30900000  0.02400000  1.0
  Li+  Li14  1  0.43450000  0.39300000  0.17800000  1.0
  Li+  Li14  1  0.93450000  0.39300000  0.17800000  1.0
  Li+  Li15  1  0.01200000  0.13100000  0.80900000  1.0
  Li+  Li15  1  0.51200000  0.13100000  0.80900000  1.0
  Li+  Li16  1  0.16100000  0.71500000  0.69100000  1.0
  Li+  Li16  1  0.66100000  0.71500000  0.69100000  1.0
  Li+  Li17  1  0.01200000  0.39300000  0.21500000  1.0
  Li+  Li17  1  0.51200000  0.39300000  0.21500000  1.0
  Li+  Li18  1  0.30350000  0.13100000  0.32200000  1.0
  Li+  Li18  1  0.80350000  0.13100000  0.32200000  1.0
  Li+  Li19  1  0.44650000  0.71500000  0.02400000  1.0
  Li+  Li19  1  0.94650000  0.71500000  0.02400000  1.0
  Li+  Li20  1  0.40450000  0.78500000  0.17800000  1.0
  Li+  Li20  1  0.90450000  0.78500000  0.17800000  1.0
  Li+  Li21  1  0.14250000  0.67800000  0.80900000  1.0
  Li+  Li21  1  0.64250000  0.67800000  0.80900000  1.0
  Li+  Li22  1  0.43450000  0.97600000  0.69100000  1.0
  Li+  Li22  1  0.93450000  0.97600000  0.69100000  1.0
  Li+  Li23  1  0.31550000  0.82200000  0.60700000  1.0
  Li+  Li23  1  0.81550000  0.82200000  0.60700000  1.0
  Li+  Li24  1  0.05350000  0.28500000  0.97600000  1.0
  Li+  Li24  1  0.55350000  0.28500000  0.97600000  1.0
  Li+  Li25  1  0.35750000  0.32200000  0.19100000  1.0
  Li+  Li25  1  0.85750000  0.32200000  0.19100000  1.0
  Li+  Li26  1  0.06550000  0.02400000  0.30900000  1.0
  Li+  Li26  1  0.56550000  0.02400000  0.30900000  1.0
  La3+  La1  1  0.37500000  0.62500000  0.37500000  1.0
  La3+  La1  1  0.87500000  0.62500000  0.37500000  1.0
  La3+  La1  1  0.12500000  0.87500000  0.12500000  1.0
  La3+  La1  1  0.62500000  0.87500000  0.12500000  1.0
  La3+  La1  1  0.06250000  0.75000000  0.37500000  1.0
  La3+  La1  1  0.56250000  0.75000000  0.37500000  1.0
  La3+  La1  1  0.18750000  0.25000000  0.12500000  1.0
  La3+  La1  1  0.68750000  0.25000000  0.12500000  1.0
  La3+  La1  1  0.18750000  0.62500000  0.25000000  1.0
  La3+  La1  1  0.68750000  0.62500000  0.25000000  1.0
  La3+  La1  1  0.06250000  0.87500000  0.75000000  1.0
  La3+  La1  1  0.56250000  0.87500000  0.75000000  1.0
  La3+  La1  1  0.12500000  0.37500000  0.62500000  1.0
  La3+  La1  1  0.62500000  0.37500000  0.62500000  1.0
  La3+  La1  1  0.37500000  0.12500000  0.87500000  1.0
  La3+  La1  1  0.87500000  0.12500000  0.87500000  1.0
  La3+  La1  1  0.43750000  0.25000000  0.62500000  1.0
  La3+  La1  1  0.93750000  0.25000000  0.62500000  1.0
  La3+  La1  1  0.31250000  0.75000000  0.87500000  1.0
  La3+  La1  1  0.81250000  0.75000000  0.87500000  1.0
  La3+  La1  1  0.31250000  0.37500000  0.75000000  1.0
  La3+  La1  1  0.81250000  0.37500000  0.75000000  1.0
  La3+  La1  1  0.43750000  0.12500000  0.25000000  1.0
  La3+  La1  1  0.93750000  0.12500000  0.25000000  1.0
  Zr4+  Zr39  1  0.00000000  0.00000000  0.50000000  1.0
  Zr4+  Zr39  1  0.50000000  0.00000000  0.50000000  1.0
  Zr4+  Zr40  1  0.25000000  0.50000000  0.50000000  1.0
  Zr4+  Zr40  1  0.75000000  0.50000000  0.50000000  1.0
  Zr4+  Zr41  1  0.00000000  0.50000000  0.00000000  1.0
  Zr4+  Zr41  1  0.50000000  0.50000000  0.00000000  1.0
  Zr4+  Zr42  1  0.25000000  0.00000000  0.00000000  1.0
  Zr4+  Zr42  1  0.75000000  0.00000000  0.00000000  1.0
  Zr4+  Zr43  1  0.00000000  0.50000000  0.50000000  1.0
  Zr4+  Zr43  1  0.50000000  0.50000000  0.50000000  1.0
  Zr4+  Zr44  1  0.25000000  0.50000000  0.00000000  1.0
  Zr4+  Zr44  1  0.75000000  0.50000000  0.00000000  1.0
  Zr4+  Zr45  1  0.00000000  0.00000000  0.00000000  1.0
  Zr4+  Zr45  1  0.50000000  0.00000000  0.00000000  1.0
  Ta5+  Ta46  1  0.25000000  0.00000000  0.50000000  1.0
  Ta5+  Ta46  1  0.75000000  0.00000000  0.50000000  1.0
  O2-  O1  1  0.45600000  0.52100000  0.31900000  1.0
  O2-  O1  1  0.95600000  0.52100000  0.31900000  1.0
  O2-  O1  1  0.29400000  0.40700000  0.10900000  1.0
  O2-  O1  1  0.79400000  0.40700000  0.10900000  1.0
  O2-  O1  1  0.14900000  0.97900000  0.39100000  1.0
  O2-  O1  1  0.64900000  0.97900000  0.39100000  1.0
  O2-  O1  1  0.10100000  0.09300000  0.18100000  1.0
  O2-  O1  1  0.60100000  0.09300000  0.18100000  1.0
  O2-  O1  1  0.19550000  0.79800000  0.47900000  1.0
  O2-  O1  1  0.69550000  0.79800000  0.47900000  1.0
  O2-  O1  1  0.09050000  0.70200000  0.59300000  1.0
  O2-  O1  1  0.59050000  0.70200000  0.59300000  1.0
  O2-  O1  1  0.15950000  0.41200000  0.02100000  1.0
  O2-  O1  1  0.65950000  0.41200000  0.02100000  1.0
  O2-  O1  1  0.05450000  0.08800000  0.90700000  1.0
  O2-  O1  1  0.55450000  0.08800000  0.90700000  1.0
  O2-  O1  1  0.29650000  0.68100000  0.20200000  1.0
  O2-  O1  1  0.79650000  0.68100000  0.20200000  1.0
  O2-  O1  1  0.23950000  0.89100000  0.29800000  1.0
  O2-  O1  1  0.73950000  0.89100000  0.29800000  1.0
  O2-  O1  1  0.45350000  0.60900000  0.58800000  1.0
  O2-  O1  1  0.95350000  0.60900000  0.58800000  1.0
  O2-  O1  1  0.01050000  0.81900000  0.91200000  1.0
  O2-  O1  1  0.51050000  0.81900000  0.91200000  1.0
  O2-  O1  1  0.04400000  0.47900000  0.68100000  1.0
  O2-  O1  1  0.54400000  0.47900000  0.68100000  1.0
  O2-  O1  1  0.20600000  0.59300000  0.89100000  1.0
  O2-  O1  1  0.70600000  0.59300000  0.89100000  1.0
  O2-  O1  1  0.35100000  0.02100000  0.60900000  1.0
  O2-  O1  1  0.85100000  0.02100000  0.60900000  1.0
  O2-  O1  1  0.39900000  0.90700000  0.81900000  1.0
  O2-  O1  1  0.89900000  0.90700000  0.81900000  1.0
  O2-  O1  1  0.30450000  0.20200000  0.52100000  1.0
  O2-  O1  1  0.80450000  0.20200000  0.52100000  1.0
  O2-  O1  1  0.40950000  0.29800000  0.40700000  1.0
  O2-  O1  1  0.90950000  0.29800000  0.40700000  1.0
  O2-  O1  1  0.34050000  0.58800000  0.97900000  1.0
  O2-  O1  1  0.84050000  0.58800000  0.97900000  1.0
  O2-  O1  1  0.44550000  0.91200000  0.09300000  1.0
  O2-  O1  1  0.94550000  0.91200000  0.09300000  1.0
  O2-  O1  1  0.20350000  0.31900000  0.79800000  1.0
  O2-  O1  1  0.70350000  0.31900000  0.79800000  1.0
  O2-  O1  1  0.26050000  0.10900000  0.70200000  1.0
  O2-  O1  1  0.76050000  0.10900000  0.70200000  1.0
  O2-  O1  1  0.04650000  0.39100000  0.41200000  1.0
  O2-  O1  1  0.54650000  0.39100000  0.41200000  1.0
  O2-  O1  1  0.48950000  0.18100000  0.08800000  1.0
  O2-  O1  1  0.98950000  0.18100000  0.08800000  1.0
  O2-  O1  1  0.04650000  0.20200000  0.68100000  1.0
  O2-  O1  1  0.54650000  0.20200000  0.68100000  1.0
  O2-  O1  1  0.48950000  0.29800000  0.89100000  1.0
  O2-  O1  1  0.98950000  0.29800000  0.89100000  1.0
  O2-  O1  1  0.20350000  0.58800000  0.60900000  1.0
  O2-  O1  1  0.70350000  0.58800000  0.60900000  1.0
  O2-  O1  1  0.26050000  0.91200000  0.81900000  1.0
  O2-  O1  1  0.76050000  0.91200000  0.81900000  1.0
  O2-  O1  1  0.20600000  0.31900000  0.52100000  1.0
  O2-  O1  1  0.70600000  0.31900000  0.52100000  1.0
  O2-  O1  1  0.04400000  0.10900000  0.40700000  1.0
  O2-  O1  1  0.54400000  0.10900000  0.40700000  1.0
  O2-  O1  1  0.39900000  0.39100000  0.97900000  1.0
  O2-  O1  1  0.89900000  0.39100000  0.97900000  1.0
  O2-  O1  1  0.35100000  0.18100000  0.09300000  1.0
  O2-  O1  1  0.85100000  0.18100000  0.09300000  1.0
  O2-  O1  1  0.44550000  0.47900000  0.79800000  1.0
  O2-  O1  1  0.94550000  0.47900000  0.79800000  1.0
  O2-  O1  1  0.34050000  0.59300000  0.70200000  1.0
  O2-  O1  1  0.84050000  0.59300000  0.70200000  1.0
  O2-  O1  1  0.40950000  0.02100000  0.41200000  1.0
  O2-  O1  1  0.90950000  0.02100000  0.41200000  1.0
  O2-  O1  1  0.30450000  0.90700000  0.08800000  1.0
  O2-  O1  1  0.80450000  0.90700000  0.08800000  1.0
  O2-  O1  1  0.45350000  0.79800000  0.31900000  1.0
  O2-  O1  1  0.95350000  0.79800000  0.31900000  1.0
  O2-  O1  1  0.01050000  0.70200000  0.10900000  1.0
  O2-  O1  1  0.51050000  0.70200000  0.10900000  1.0
  O2-  O1  1  0.29650000  0.41200000  0.39100000  1.0
  O2-  O1  1  0.79650000  0.41200000  0.39100000  1.0
  O2-  O1  1  0.23950000  0.08800000  0.18100000  1.0
  O2-  O1  1  0.73950000  0.08800000  0.18100000  1.0
  O2-  O1  1  0.29400000  0.68100000  0.47900000  1.0
  O2-  O1  1  0.79400000  0.68100000  0.47900000  1.0
  O2-  O1  1  0.45600000  0.89100000  0.59300000  1.0
  O2-  O1  1  0.95600000  0.89100000  0.59300000  1.0
  O2-  O1  1  0.10100000  0.60900000  0.02100000  1.0
  O2-  O1  1  0.60100000  0.60900000  0.02100000  1.0
  O2-  O1  1  0.14900000  0.81900000  0.90700000  1.0
  O2-  O1  1  0.64900000  0.81900000  0.90700000  1.0
  O2-  O1  1  0.05450000  0.52100000  0.20200000  1.0
  O2-  O1  1  0.55450000  0.52100000  0.20200000  1.0
  O2-  O1  1  0.15950000  0.40700000  0.29800000  1.0
  O2-  O1  1  0.65950000  0.40700000  0.29800000  1.0
  O2-  O1  1  0.09050000  0.97900000  0.58800000  1.0
  O2-  O1  1  0.59050000  0.97900000  0.58800000  1.0
  O2-  O1  1  0.19550000  0.09300000  0.91200000  1.0
  O2-  O1  1  0.69550000  0.09300000  0.91200000  1.0
