# generated using pymatgen
data_Li6Ge2O7
_symmetry_space_group_name_H-M   'P 1'
_cell_length_a   15.91200000
_cell_length_b   8.07100000
_cell_length_c   14.22300000
_cell_angle_alpha   92.90000000
_cell_angle_beta   90.00000000
_cell_angle_gamma   90.00000000
_symmetry_Int_Tables_number   1
_chemical_formula_structural   Li6Ge2O7
_chemical_formula_sum   'Li72 Ge24 O84'
_cell_volume   1824.26024921
_cell_formula_units_Z   12
loop_
 _symmetry_equiv_pos_site_id
 _symmetry_equiv_pos_as_xyz
  1  'x, y, z'
loop_
 _atom_type_symbol
 _atom_type_oxidation_number
  Li+  1.0
  Ge4+  4.0
  O2-  -2.0
loop_
 _atom_site_type_symbol
 _atom_site_label
 _atom_site_symmetry_multiplicity
 _atom_site_fract_x
 _atom_site_fract_y
 _atom_site_fract_z
 _atom_site_occupancy
  Li+  Li1  1  0.32856000  0.79880000  0.62080000  1.0
  Li+  Li1  1  0.66189333  0.79880000  0.62080000  1.0
  Li+  Li1  1  0.99522667  0.79880000  0.62080000  1.0
  Li+  Li1  1  0.17144000  0.29880000  0.12080000  1.0
  Li+  Li1  1  0.50477333  0.29880000  0.12080000  1.0
  Li+  Li1  1  0.83810667  0.29880000  0.12080000  1.0
  Li+  Li1  1  0.00477333  0.20120000  0.37920000  1.0
  Li+  Li1  1  0.33810667  0.20120000  0.37920000  1.0
  Li+  Li1  1  0.67144000  0.20120000  0.37920000  1.0
  Li+  Li1  1  0.16189333  0.70120000  0.87920000  1.0
  Li+  Li1  1  0.49522667  0.70120000  0.87920000  1.0
  Li+  Li1  1  0.82856000  0.70120000  0.87920000  1.0
  Li+  Li2  1  0.26896667  0.55240000  0.54320000  1.0
  Li+  Li2  1  0.60230000  0.55240000  0.54320000  1.0
  Li+  Li2  1  0.93563333  0.55240000  0.54320000  1.0
  Li+  Li2  1  0.23103333  0.05240000  0.04320000  1.0
  Li+  Li2  1  0.56436667  0.05240000  0.04320000  1.0
  Li+  Li2  1  0.89770000  0.05240000  0.04320000  1.0
  Li+  Li2  1  0.06436667  0.44760000  0.45680000  1.0
  Li+  Li2  1  0.39770000  0.44760000  0.45680000  1.0
  Li+  Li2  1  0.73103333  0.44760000  0.45680000  1.0
  Li+  Li2  1  0.10230000  0.94760000  0.95680000  1.0
  Li+  Li2  1  0.43563333  0.94760000  0.95680000  1.0
  Li+  Li2  1  0.76896667  0.94760000  0.95680000  1.0
  Li+  Li3  1  0.11816667  0.77320000  0.51460000  1.0
  Li+  Li3  1  0.45150000  0.77320000  0.51460000  1.0
  Li+  Li3  1  0.78483333  0.77320000  0.51460000  1.0
  Li+  Li3  1  0.04850000  0.27320000  0.01460000  1.0
  Li+  Li3  1  0.38183333  0.27320000  0.01460000  1.0
  Li+  Li3  1  0.71516667  0.27320000  0.01460000  1.0
  Li+  Li3  1  0.21516667  0.22680000  0.48540000  1.0
  Li+  Li3  1  0.54850000  0.22680000  0.48540000  1.0
  Li+  Li3  1  0.88183333  0.22680000  0.48540000  1.0
  Li+  Li3  1  0.28483333  0.72680000  0.98540000  1.0
  Li+  Li3  1  0.61816667  0.72680000  0.98540000  1.0
  Li+  Li3  1  0.95150000  0.72680000  0.98540000  1.0
  Li+  Li4  1  0.10940000  0.87120000  0.74360000  1.0
  Li+  Li4  1  0.44273333  0.87120000  0.74360000  1.0
  Li+  Li4  1  0.77606667  0.87120000  0.74360000  1.0
  Li+  Li4  1  0.05726667  0.37120000  0.24360000  1.0
  Li+  Li4  1  0.39060000  0.37120000  0.24360000  1.0
  Li+  Li4  1  0.72393333  0.37120000  0.24360000  1.0
  Li+  Li4  1  0.22393333  0.12880000  0.25640000  1.0
  Li+  Li4  1  0.55726667  0.12880000  0.25640000  1.0
  Li+  Li4  1  0.89060000  0.12880000  0.25640000  1.0
  Li+  Li4  1  0.27606667  0.62880000  0.75640000  1.0
  Li+  Li4  1  0.60940000  0.62880000  0.75640000  1.0
  Li+  Li4  1  0.94273333  0.62880000  0.75640000  1.0
  Li+  Li5  1  0.20966667  0.96080000  0.61520000  1.0
  Li+  Li5  1  0.54300000  0.96080000  0.61520000  1.0
  Li+  Li5  1  0.87633333  0.96080000  0.61520000  1.0
  Li+  Li5  1  0.29033333  0.46080000  0.11520000  1.0
  Li+  Li5  1  0.62366667  0.46080000  0.11520000  1.0
  Li+  Li5  1  0.95700000  0.46080000  0.11520000  1.0
  Li+  Li5  1  0.12366667  0.03920000  0.38480000  1.0
  Li+  Li5  1  0.45700000  0.03920000  0.38480000  1.0
  Li+  Li5  1  0.79033333  0.03920000  0.38480000  1.0
  Li+  Li5  1  0.04300000  0.53920000  0.88480000  1.0
  Li+  Li5  1  0.37633333  0.53920000  0.88480000  1.0
  Li+  Li5  1  0.70966667  0.53920000  0.88480000  1.0
  Li+  Li6  1  0.25663333  0.29250000  0.69540000  1.0
  Li+  Li6  1  0.58996667  0.29250000  0.69540000  1.0
  Li+  Li6  1  0.92330000  0.29250000  0.69540000  1.0
  Li+  Li6  1  0.24336667  0.79250000  0.19540000  1.0
  Li+  Li6  1  0.57670000  0.79250000  0.19540000  1.0
  Li+  Li6  1  0.91003333  0.79250000  0.19540000  1.0
  Li+  Li6  1  0.07670000  0.70750000  0.30460000  1.0
  Li+  Li6  1  0.41003333  0.70750000  0.30460000  1.0
  Li+  Li6  1  0.74336667  0.70750000  0.30460000  1.0
  Li+  Li6  1  0.08996667  0.20750000  0.80460000  1.0
  Li+  Li6  1  0.42330000  0.20750000  0.80460000  1.0
  Li+  Li6  1  0.75663333  0.20750000  0.80460000  1.0
  Ge4+  Ge1  1  0.10938000  0.51294000  0.66884000  1.0
  Ge4+  Ge1  1  0.44271333  0.51294000  0.66884000  1.0
  Ge4+  Ge1  1  0.77604667  0.51294000  0.66884000  1.0
  Ge4+  Ge1  1  0.05728667  0.01294000  0.16884000  1.0
  Ge4+  Ge1  1  0.39062000  0.01294000  0.16884000  1.0
  Ge4+  Ge1  1  0.72395333  0.01294000  0.16884000  1.0
  Ge4+  Ge1  1  0.22395333  0.48706000  0.33116000  1.0
  Ge4+  Ge1  1  0.55728667  0.48706000  0.33116000  1.0
  Ge4+  Ge1  1  0.89062000  0.48706000  0.33116000  1.0
  Ge4+  Ge1  1  0.27604667  0.98706000  0.83116000  1.0
  Ge4+  Ge1  1  0.60938000  0.98706000  0.83116000  1.0
  Ge4+  Ge1  1  0.94271333  0.98706000  0.83116000  1.0
  Ge4+  Ge2  1  0.05001000  0.14848000  0.58785000  1.0
  Ge4+  Ge2  1  0.38334333  0.14848000  0.58785000  1.0
  Ge4+  Ge2  1  0.71667667  0.14848000  0.58785000  1.0
  Ge4+  Ge2  1  0.11665667  0.64848000  0.08785000  1.0
  Ge4+  Ge2  1  0.44999000  0.64848000  0.08785000  1.0
  Ge4+  Ge2  1  0.78332333  0.64848000  0.08785000  1.0
  Ge4+  Ge2  1  0.28332333  0.85152000  0.41215000  1.0
  Ge4+  Ge2  1  0.61665667  0.85152000  0.41215000  1.0
  Ge4+  Ge2  1  0.94999000  0.85152000  0.41215000  1.0
  Ge4+  Ge2  1  0.21667667  0.35152000  0.91215000  1.0
  Ge4+  Ge2  1  0.55001000  0.35152000  0.91215000  1.0
  Ge4+  Ge2  1  0.88334333  0.35152000  0.91215000  1.0
  O2-  O1  1  0.21796667  0.50020000  0.65970000  1.0
  O2-  O1  1  0.55130000  0.50020000  0.65970000  1.0
  O2-  O1  1  0.88463333  0.50020000  0.65970000  1.0
  O2-  O1  1  0.28203333  0.00020000  0.15970000  1.0
  O2-  O1  1  0.61536667  0.00020000  0.15970000  1.0
  O2-  O1  1  0.94870000  0.00020000  0.15970000  1.0
  O2-  O1  1  0.11536667  0.49980000  0.34030000  1.0
  O2-  O1  1  0.44870000  0.49980000  0.34030000  1.0
  O2-  O1  1  0.78203333  0.49980000  0.34030000  1.0
  O2-  O1  1  0.05130000  0.99980000  0.84030000  1.0
  O2-  O1  1  0.38463333  0.99980000  0.84030000  1.0
  O2-  O1  1  0.71796667  0.99980000  0.84030000  1.0
  O2-  O2  1  0.05943333  0.59000000  0.57080000  1.0
  O2-  O2  1  0.39276667  0.59000000  0.57080000  1.0
  O2-  O2  1  0.72610000  0.59000000  0.57080000  1.0
  O2-  O2  1  0.10723333  0.09000000  0.07080000  1.0
  O2-  O2  1  0.44056667  0.09000000  0.07080000  1.0
  O2-  O2  1  0.77390000  0.09000000  0.07080000  1.0
  O2-  O2  1  0.27390000  0.41000000  0.42920000  1.0
  O2-  O2  1  0.60723333  0.41000000  0.42920000  1.0
  O2-  O2  1  0.94056667  0.41000000  0.42920000  1.0
  O2-  O2  1  0.22610000  0.91000000  0.92920000  1.0
  O2-  O2  1  0.55943333  0.91000000  0.92920000  1.0
  O2-  O2  1  0.89276667  0.91000000  0.92920000  1.0
  O2-  O3  1  0.24056667  0.78440000  0.51610000  1.0
  O2-  O3  1  0.57390000  0.78440000  0.51610000  1.0
  O2-  O3  1  0.90723333  0.78440000  0.51610000  1.0
  O2-  O3  1  0.25943333  0.28440000  0.01610000  1.0
  O2-  O3  1  0.59276667  0.28440000  0.01610000  1.0
  O2-  O3  1  0.92610000  0.28440000  0.01610000  1.0
  O2-  O3  1  0.09276667  0.21560000  0.48390000  1.0
  O2-  O3  1  0.42610000  0.21560000  0.48390000  1.0
  O2-  O3  1  0.75943333  0.21560000  0.48390000  1.0
  O2-  O3  1  0.07390000  0.71560000  0.98390000  1.0
  O2-  O3  1  0.40723333  0.71560000  0.98390000  1.0
  O2-  O3  1  0.74056667  0.71560000  0.98390000  1.0
  O2-  O4  1  0.24253333  0.86260000  0.73380000  1.0
  O2-  O4  1  0.57586667  0.86260000  0.73380000  1.0
  O2-  O4  1  0.90920000  0.86260000  0.73380000  1.0
  O2-  O4  1  0.25746667  0.36260000  0.23380000  1.0
  O2-  O4  1  0.59080000  0.36260000  0.23380000  1.0
  O2-  O4  1  0.92413333  0.36260000  0.23380000  1.0
  O2-  O4  1  0.09080000  0.13740000  0.26620000  1.0
  O2-  O4  1  0.42413333  0.13740000  0.26620000  1.0
  O2-  O4  1  0.75746667  0.13740000  0.26620000  1.0
  O2-  O4  1  0.07586667  0.63740000  0.76620000  1.0
  O2-  O4  1  0.40920000  0.63740000  0.76620000  1.0
  O2-  O4  1  0.74253333  0.63740000  0.76620000  1.0
  O2-  O5  1  0.08993333  0.95860000  0.62020000  1.0
  O2-  O5  1  0.42326667  0.95860000  0.62020000  1.0
  O2-  O5  1  0.75660000  0.95860000  0.62020000  1.0
  O2-  O5  1  0.07673333  0.45860000  0.12020000  1.0
  O2-  O5  1  0.41006667  0.45860000  0.12020000  1.0
  O2-  O5  1  0.74340000  0.45860000  0.12020000  1.0
  O2-  O5  1  0.24340000  0.04140000  0.37980000  1.0
  O2-  O5  1  0.57673333  0.04140000  0.37980000  1.0
  O2-  O5  1  0.91006667  0.04140000  0.37980000  1.0
  O2-  O5  1  0.25660000  0.54140000  0.87980000  1.0
  O2-  O5  1  0.58993333  0.54140000  0.87980000  1.0
  O2-  O5  1  0.92326667  0.54140000  0.87980000  1.0
  O2-  O6  1  0.27416667  0.14650000  0.58960000  1.0
  O2-  O6  1  0.60750000  0.14650000  0.58960000  1.0
  O2-  O6  1  0.94083333  0.14650000  0.58960000  1.0
  O2-  O6  1  0.22583333  0.64650000  0.08960000  1.0
  O2-  O6  1  0.55916667  0.64650000  0.08960000  1.0
  O2-  O6  1  0.89250000  0.64650000  0.08960000  1.0
  O2-  O6  1  0.05916667  0.85350000  0.41040000  1.0
  O2-  O6  1  0.39250000  0.85350000  0.41040000  1.0
  O2-  O6  1  0.72583333  0.85350000  0.41040000  1.0
  O2-  O6  1  0.10750000  0.35350000  0.91040000  1.0
  O2-  O6  1  0.44083333  0.35350000  0.91040000  1.0
  O2-  O6  1  0.77416667  0.35350000  0.91040000  1.0
  O2-  O7  1  0.07336667  0.30170000  0.68320000  1.0
  O2-  O7  1  0.40670000  0.30170000  0.68320000  1.0
  O2-  O7  1  0.74003333  0.30170000  0.68320000  1.0
  O2-  O7  1  0.09330000  0.80170000  0.18320000  1.0
  O2-  O7  1  0.42663333  0.80170000  0.18320000  1.0
  O2-  O7  1  0.75996667  0.80170000  0.18320000  1.0
  O2-  O7  1  0.25996667  0.69830000  0.31680000  1.0
  O2-  O7  1  0.59330000  0.69830000  0.31680000  1.0
  O2-  O7  1  0.92663333  0.69830000  0.31680000  1.0
  O2-  O7  1  0.24003333  0.19830000  0.81680000  1.0
  O2-  O7  1  0.57336667  0.19830000  0.81680000  1.0
  O2-  O7  1  0.90670000  0.19830000  0.81680000  1.0
