# generated using pymatgen
data_Na3Li2La5Nb20O60
_symmetry_space_group_name_H-M   'P 1'
_cell_length_a   19.56000000
_cell_length_b   7.86100000
_cell_length_c   15.66000000
_cell_angle_alpha   90.00000000
_cell_angle_beta   90.00000000
_cell_angle_gamma   90.00000000
_symmetry_Int_Tables_number   1
_chemical_formula_structural   Na3Li2La5Nb20O60
_chemical_formula_sum   'Na6 Li4 La10 Nb40 O120'
_cell_volume   2407.89976560
_cell_formula_units_Z   2
loop_
 _symmetry_equiv_pos_site_id
 _symmetry_equiv_pos_as_xyz
  1  'x, y, z'
loop_
 _atom_type_symbol
 _atom_type_oxidation_number
  Na+  1.0
  Li+  1.0
  La3+  3.0
  Nb5+  5.0
  O2-  -2.0
loop_
 _atom_site_type_symbol
 _atom_site_label
 _atom_site_symmetry_multiplicity
 _atom_site_fract_x
 _atom_site_fract_y
 _atom_site_fract_z
 _atom_site_occupancy
  Na+  Na0  1  0.40000000  0.00000000  0.50000000  1.0
  Na+  Na1  1  0.40000000  0.00000000  0.00000000  1.0
  Na+  Na2  1  0.60000000  0.00000000  0.75000000  1.0
  Na+  Na3  1  0.60182582  0.99686433  0.24824549  1.0
  Na+  Na4  1  0.80000000  0.00000000  0.50000000  1.0
  Na+  Na5  1  0.80000000  0.00000000  0.00000000  1.0
  Li+  Li6  1  0.00000000  0.00000000  0.75000000  1.0
  Li+  Li7  1  0.00000000  0.00000000  0.25000000  1.0
  Li+  Li8  1  0.19783224  0.99994630  0.74898856  1.0
  Li+  Li9  1  0.20000000  0.00000000  0.25000000  1.0
  La3+  La10  1  0.00000000  0.00000000  0.50000000  1.0
  La3+  La11  1  0.00000000  0.00000000  0.00000000  1.0
  La3+  La12  1  0.20537624  0.99950894  0.50096875  1.0
  La3+  La13  1  0.19932541  0.00093381  0.00342852  1.0
  La3+  La14  1  0.39994122  0.99714863  0.74752858  1.0
  La3+  La15  1  0.40000000  0.00000000  0.25000000  1.0
  La3+  La16  1  0.60000000  0.00000000  0.50000000  1.0
  La3+  La17  1  0.60000000  0.00000000  0.00000000  1.0
  La3+  La18  1  0.80000000  0.00000000  0.75000000  1.0
  La3+  La19  1  0.80000000  0.00000000  0.25000000  1.0
  Nb5+  Nb20  1  0.10000000  0.25600000  0.62500000  1.0
  Nb5+  Nb21  1  0.10597561  0.25429307  0.12494989  1.0
  Nb5+  Nb22  1  0.10000000  0.25600000  0.37500000  1.0
  Nb5+  Nb23  1  0.09900340  0.25156580  0.87498811  1.0
  Nb5+  Nb24  1  0.30020693  0.25640631  0.62856790  1.0
  Nb5+  Nb25  1  0.29952119  0.25661438  0.12138627  1.0
  Nb5+  Nb26  1  0.30000000  0.25600000  0.37500000  1.0
  Nb5+  Nb27  1  0.29880694  0.25807833  0.87686129  1.0
  Nb5+  Nb28  1  0.50000000  0.25600000  0.62500000  1.0
  Nb5+  Nb29  1  0.50000000  0.25600000  0.12500000  1.0
  Nb5+  Nb30  1  0.50000000  0.25600000  0.37500000  1.0
  Nb5+  Nb31  1  0.50000000  0.25600000  0.87500000  1.0
  Nb5+  Nb32  1  0.70000000  0.25600000  0.62500000  1.0
  Nb5+  Nb33  1  0.70243140  0.25728100  0.12248229  1.0
  Nb5+  Nb34  1  0.70000000  0.25600000  0.37500000  1.0
  Nb5+  Nb35  1  0.70000000  0.25600000  0.87500000  1.0
  Nb5+  Nb36  1  0.90470343  0.25277535  0.62701726  1.0
  Nb5+  Nb37  1  0.90000000  0.25600000  0.12500000  1.0
  Nb5+  Nb38  1  0.90000000  0.25600000  0.37500000  1.0
  Nb5+  Nb39  1  0.90024404  0.25320110  0.87452711  1.0
  Nb5+  Nb40  1  0.10000000  0.74400000  0.62500000  1.0
  Nb5+  Nb41  1  0.10000000  0.74400000  0.12500000  1.0
  Nb5+  Nb42  1  0.10000000  0.74400000  0.37500000  1.0
  Nb5+  Nb43  1  0.10000000  0.74400000  0.87500000  1.0
  Nb5+  Nb44  1  0.30000000  0.74400000  0.62500000  1.0
  Nb5+  Nb45  1  0.30000000  0.74400000  0.12500000  1.0
  Nb5+  Nb46  1  0.29849018  0.74322148  0.37621064  1.0
  Nb5+  Nb47  1  0.30000000  0.74400000  0.87500000  1.0
  Nb5+  Nb48  1  0.50000000  0.74400000  0.62500000  1.0
  Nb5+  Nb49  1  0.50000000  0.74400000  0.12500000  1.0
  Nb5+  Nb50  1  0.50000000  0.74400000  0.37500000  1.0
  Nb5+  Nb51  1  0.50370915  0.74445298  0.87385453  1.0
  Nb5+  Nb52  1  0.70000000  0.74400000  0.62500000  1.0
  Nb5+  Nb53  1  0.70000000  0.74400000  0.12500000  1.0
  Nb5+  Nb54  1  0.70000000  0.74400000  0.37500000  1.0
  Nb5+  Nb55  1  0.70292649  0.74317243  0.87651303  1.0
  Nb5+  Nb56  1  0.90000000  0.74400000  0.62500000  1.0
  Nb5+  Nb57  1  0.90000000  0.74400000  0.12500000  1.0
  Nb5+  Nb58  1  0.90000000  0.74400000  0.37500000  1.0
  Nb5+  Nb59  1  0.90000000  0.74400000  0.87500000  1.0
  O2-  O60  1  0.10000000  0.00000000  0.62500000  1.0
  O2-  O61  1  0.10287209  0.00133858  0.12481366  1.0
  O2-  O62  1  0.10267805  0.99992965  0.37950691  1.0
  O2-  O63  1  0.10000000  0.00000000  0.87500000  1.0
  O2-  O64  1  0.30000000  0.00000000  0.62500000  1.0
  O2-  O65  1  0.30000000  0.00000000  0.12500000  1.0
  O2-  O66  1  0.30000000  0.00000000  0.37500000  1.0
  O2-  O67  1  0.30000000  0.00000000  0.87500000  1.0
  O2-  O68  1  0.50404333  0.00405372  0.62388598  1.0
  O2-  O69  1  0.49768805  0.99981380  0.12456616  1.0
  O2-  O70  1  0.50000000  0.00000000  0.37500000  1.0
  O2-  O71  1  0.50000000  0.00000000  0.87500000  1.0
  O2-  O72  1  0.70000000  0.00000000  0.62500000  1.0
  O2-  O73  1  0.69915456  0.99654271  0.12298554  1.0
  O2-  O74  1  0.70000000  0.00000000  0.37500000  1.0
  O2-  O75  1  0.70094427  0.00022973  0.87436391  1.0
  O2-  O76  1  0.90000000  0.00000000  0.62500000  1.0
  O2-  O77  1  0.89646061  0.00176202  0.12015184  1.0
  O2-  O78  1  0.90172522  0.00182369  0.37361523  1.0
  O2-  O79  1  0.89920076  0.00284598  0.87826701  1.0
  O2-  O80  1  0.09960820  0.49757981  0.62453871  1.0
  O2-  O81  1  0.10000000  0.50000000  0.12500000  1.0
  O2-  O82  1  0.10000000  0.50000000  0.37500000  1.0
  O2-  O83  1  0.10000000  0.50000000  0.87500000  1.0
  O2-  O84  1  0.30000000  0.50000000  0.62500000  1.0
  O2-  O85  1  0.30000000  0.50000000  0.12500000  1.0
  O2-  O86  1  0.30000000  0.50000000  0.37500000  1.0
  O2-  O87  1  0.29425265  0.49753083  0.87394209  1.0
  O2-  O88  1  0.49773799  0.50051700  0.62599976  1.0
  O2-  O89  1  0.50000000  0.50000000  0.12500000  1.0
  O2-  O90  1  0.50000000  0.50000000  0.37500000  1.0
  O2-  O91  1  0.50000000  0.50000000  0.87500000  1.0
  O2-  O92  1  0.70000000  0.50000000  0.62500000  1.0
  O2-  O93  1  0.70201016  0.50089204  0.12633552  1.0
  O2-  O94  1  0.70000000  0.50000000  0.37500000  1.0
  O2-  O95  1  0.70059082  0.50268657  0.87422954  1.0
  O2-  O96  1  0.90000000  0.50000000  0.62500000  1.0
  O2-  O97  1  0.90424675  0.49735343  0.12415545  1.0
  O2-  O98  1  0.90000000  0.50000000  0.37500000  1.0
  O2-  O99  1  0.90000000  0.50000000  0.87500000  1.0
  O2-  O100  1  0.99983279  0.25731821  0.62683427  1.0
  O2-  O101  1  0.00000000  0.26000000  0.12500000  1.0
  O2-  O102  1  0.00000000  0.26000000  0.37500000  1.0
  O2-  O103  1  0.00309561  0.25906079  0.87720812  1.0
  O2-  O104  1  0.20000000  0.26000000  0.62500000  1.0
  O2-  O105  1  0.20000000  0.26000000  0.12500000  1.0
  O2-  O106  1  0.20000000  0.26000000  0.37500000  1.0
  O2-  O107  1  0.20000000  0.26000000  0.87500000  1.0
  O2-  O108  1  0.40000000  0.26000000  0.62500000  1.0
  O2-  O109  1  0.40000000  0.26000000  0.12500000  1.0
  O2-  O110  1  0.40000000  0.26000000  0.37500000  1.0
  O2-  O111  1  0.40000000  0.26000000  0.87500000  1.0
  O2-  O112  1  0.59878310  0.26540710  0.62517823  1.0
  O2-  O113  1  0.60000000  0.26000000  0.12500000  1.0
  O2-  O114  1  0.60000000  0.26000000  0.37500000  1.0
  O2-  O115  1  0.60000000  0.26000000  0.87500000  1.0
  O2-  O116  1  0.80000000  0.26000000  0.62500000  1.0
  O2-  O117  1  0.80000000  0.26000000  0.12500000  1.0
  O2-  O118  1  0.79898843  0.26231179  0.37514143  1.0
  O2-  O119  1  0.80000000  0.26000000  0.87500000  1.0
  O2-  O120  1  0.00000000  0.74000000  0.62500000  1.0
  O2-  O121  1  0.00000000  0.74000000  0.12500000  1.0
  O2-  O122  1  0.00000000  0.74000000  0.37500000  1.0
  O2-  O123  1  0.00000000  0.74000000  0.87500000  1.0
  O2-  O124  1  0.19838549  0.73771129  0.62462425  1.0
  O2-  O125  1  0.20076566  0.74052335  0.12585435  1.0
  O2-  O126  1  0.20000000  0.74000000  0.37500000  1.0
  O2-  O127  1  0.20000000  0.74000000  0.87500000  1.0
  O2-  O128  1  0.40000000  0.74000000  0.62500000  1.0
  O2-  O129  1  0.40000000  0.74000000  0.12500000  1.0
  O2-  O130  1  0.40000000  0.74000000  0.37500000  1.0
  O2-  O131  1  0.40000000  0.74000000  0.87500000  1.0
  O2-  O132  1  0.60000000  0.74000000  0.62500000  1.0
  O2-  O133  1  0.60000000  0.74000000  0.12500000  1.0
  O2-  O134  1  0.60000000  0.74000000  0.37500000  1.0
  O2-  O135  1  0.60000000  0.74000000  0.87500000  1.0
  O2-  O136  1  0.80320647  0.74078538  0.62576118  1.0
  O2-  O137  1  0.80000000  0.74000000  0.12500000  1.0
  O2-  O138  1  0.80000000  0.74000000  0.37500000  1.0
  O2-  O139  1  0.80000000  0.74000000  0.87500000  1.0
  O2-  O140  1  0.10000000  0.29000000  0.75000000  1.0
  O2-  O141  1  0.10000000  0.29000000  0.25000000  1.0
  O2-  O142  1  0.10000000  0.29000000  0.50000000  1.0
  O2-  O143  1  0.10000000  0.29000000  0.00000000  1.0
  O2-  O144  1  0.30000000  0.29000000  0.75000000  1.0
  O2-  O145  1  0.30000000  0.29000000  0.25000000  1.0
  O2-  O146  1  0.30000000  0.29000000  0.50000000  1.0
  O2-  O147  1  0.30000000  0.29000000  0.00000000  1.0
  O2-  O148  1  0.50000000  0.29000000  0.75000000  1.0
  O2-  O149  1  0.50000000  0.29000000  0.25000000  1.0
  O2-  O150  1  0.50174886  0.28888892  0.49587458  1.0
  O2-  O151  1  0.49882021  0.28790169  0.99810531  1.0
  O2-  O152  1  0.70000000  0.29000000  0.75000000  1.0
  O2-  O153  1  0.70000000  0.29000000  0.25000000  1.0
  O2-  O154  1  0.70000000  0.29000000  0.50000000  1.0
  O2-  O155  1  0.70202329  0.29081796  0.99999844  1.0
  O2-  O156  1  0.90000000  0.29000000  0.75000000  1.0
  O2-  O157  1  0.90000000  0.29000000  0.25000000  1.0
  O2-  O158  1  0.90000000  0.29000000  0.50000000  1.0
  O2-  O159  1  0.89744437  0.29101482  0.00227450  1.0
  O2-  O160  1  0.10000000  0.71000000  0.75000000  1.0
  O2-  O161  1  0.10000000  0.71000000  0.25000000  1.0
  O2-  O162  1  0.10490105  0.70794934  0.49340172  1.0
  O2-  O163  1  0.10000000  0.71000000  0.00000000  1.0
  O2-  O164  1  0.29793912  0.71129954  0.74946938  1.0
  O2-  O165  1  0.30000000  0.71000000  0.25000000  1.0
  O2-  O166  1  0.30000000  0.71000000  0.50000000  1.0
  O2-  O167  1  0.30000000  0.71000000  0.00000000  1.0
  O2-  O168  1  0.50000000  0.71000000  0.75000000  1.0
  O2-  O169  1  0.50000000  0.71000000  0.25000000  1.0
  O2-  O170  1  0.50000000  0.71000000  0.50000000  1.0
  O2-  O171  1  0.50000000  0.71000000  0.00000000  1.0
  O2-  O172  1  0.70000000  0.71000000  0.75000000  1.0
  O2-  O173  1  0.70000000  0.71000000  0.25000000  1.0
  O2-  O174  1  0.69929229  0.70562170  0.50033041  1.0
  O2-  O175  1  0.70000000  0.71000000  0.00000000  1.0
  O2-  O176  1  0.90000000  0.71000000  0.75000000  1.0
  O2-  O177  1  0.90000000  0.71000000  0.25000000  1.0
  O2-  O178  1  0.90000000  0.71000000  0.50000000  1.0
  O2-  O179  1  0.90000000  0.71000000  0.00000000  1.0
