# generated using pymatgen
data_Na3Li2La5Nb20O60
_symmetry_space_group_name_H-M   'P 1'
_cell_length_a   15.78622148
_cell_length_b   19.71765595
_cell_length_c   7.92436060
_cell_angle_alpha   90.00000000
_cell_angle_beta   90.00000000
_cell_angle_gamma   90.00000000
_symmetry_Int_Tables_number   1
_chemical_formula_structural   Na3Li2La5Nb20O60
_chemical_formula_sum   'Na6 Li4 La10 Nb40 O120'
_cell_volume   2466.59420055
_cell_formula_units_Z   2
loop_
 _symmetry_equiv_pos_site_id
 _symmetry_equiv_pos_as_xyz
  1  'x, y, z'
loop_
 _atom_type_symbol
 _atom_type_oxidation_number
  Na+  1.0
  Li+  1.0
  La3+  3.0
  Nb5+  5.0
  O2-  -2.0
loop_
 _atom_site_type_symbol
 _atom_site_label
 _atom_site_symmetry_multiplicity
 _atom_site_fract_x
 _atom_site_fract_y
 _atom_site_fract_z
 _atom_site_occupancy
  Na+  Na0  1  0.75000000  0.26666667  0.00000000  1.0
  Na+  Na1  1  0.25000000  0.26666667  0.00000000  1.0
  Na+  Na2  1  0.00000000  0.06666667  0.00000000  1.0
  Na+  Na3  1  0.50000000  0.06666667  0.00000000  1.0
  Na+  Na4  1  0.75000000  0.86666667  0.00000000  1.0
  Na+  Na5  1  0.25000000  0.86666667  0.00000000  1.0
  Li+  Li6  1  0.00000000  0.66666667  0.00000000  1.0
  Li+  Li7  1  0.50000000  0.66666667  0.00000000  1.0
  Li+  Li8  1  0.00000000  0.46666667  0.00000000  1.0
  Li+  Li9  1  0.50000000  0.46666667  0.00000000  1.0
  La3+  La10  1  0.75000000  0.66666667  0.00000000  1.0
  La3+  La11  1  0.25000000  0.66666667  0.00000000  1.0
  La3+  La12  1  0.75000000  0.46666667  0.00000000  1.0
  La3+  La13  1  0.25000000  0.46666667  0.00000000  1.0
  La3+  La14  1  0.00000000  0.26666667  0.00000000  1.0
  La3+  La15  1  0.50000000  0.26666667  0.00000000  1.0
  La3+  La16  1  0.75000000  0.06666667  0.00000000  1.0
  La3+  La17  1  0.25000000  0.06666667  0.00000000  1.0
  La3+  La18  1  0.00000000  0.86666667  0.00000000  1.0
  La3+  La19  1  0.50000000  0.86666667  0.00000000  1.0
  Nb5+  Nb20  1  0.87500000  0.56666667  0.74400000  1.0
  Nb5+  Nb21  1  0.37500000  0.56666667  0.74400000  1.0
  Nb5+  Nb22  1  0.62500000  0.56666667  0.74400000  1.0
  Nb5+  Nb23  1  0.12500000  0.56666667  0.74400000  1.0
  Nb5+  Nb24  1  0.87500000  0.36666667  0.74400000  1.0
  Nb5+  Nb25  1  0.37500000  0.36666667  0.74400000  1.0
  Nb5+  Nb26  1  0.62500000  0.36666667  0.74400000  1.0
  Nb5+  Nb27  1  0.12500000  0.36666667  0.74400000  1.0
  Nb5+  Nb28  1  0.87500000  0.16666667  0.74400000  1.0
  Nb5+  Nb29  1  0.37500000  0.16666667  0.74400000  1.0
  Nb5+  Nb30  1  0.62500000  0.16666667  0.74400000  1.0
  Nb5+  Nb31  1  0.12500000  0.16666667  0.74400000  1.0
  Nb5+  Nb32  1  0.87500000  0.96666667  0.74400000  1.0
  Nb5+  Nb33  1  0.37500000  0.96666667  0.74400000  1.0
  Nb5+  Nb34  1  0.62500000  0.96666667  0.74400000  1.0
  Nb5+  Nb35  1  0.12500000  0.96666667  0.74400000  1.0
  Nb5+  Nb36  1  0.87500000  0.76666667  0.74400000  1.0
  Nb5+  Nb37  1  0.37500000  0.76666667  0.74400000  1.0
  Nb5+  Nb38  1  0.62500000  0.76666667  0.74400000  1.0
  Nb5+  Nb39  1  0.12500000  0.76666667  0.74400000  1.0
  Nb5+  Nb40  1  0.87500000  0.56666667  0.25600000  1.0
  Nb5+  Nb41  1  0.37500000  0.56666667  0.25600000  1.0
  Nb5+  Nb42  1  0.62500000  0.56666667  0.25600000  1.0
  Nb5+  Nb43  1  0.12500000  0.56666667  0.25600000  1.0
  Nb5+  Nb44  1  0.87500000  0.36666667  0.25600000  1.0
  Nb5+  Nb45  1  0.37500000  0.36666667  0.25600000  1.0
  Nb5+  Nb46  1  0.62500000  0.36666667  0.25600000  1.0
  Nb5+  Nb47  1  0.12500000  0.36666667  0.25600000  1.0
  Nb5+  Nb48  1  0.87500000  0.16666667  0.25600000  1.0
  Nb5+  Nb49  1  0.37500000  0.16666667  0.25600000  1.0
  Nb5+  Nb50  1  0.62500000  0.16666667  0.25600000  1.0
  Nb5+  Nb51  1  0.12500000  0.16666667  0.25600000  1.0
  Nb5+  Nb52  1  0.87500000  0.96666667  0.25600000  1.0
  Nb5+  Nb53  1  0.37500000  0.96666667  0.25600000  1.0
  Nb5+  Nb54  1  0.62500000  0.96666667  0.25600000  1.0
  Nb5+  Nb55  1  0.12500000  0.96666667  0.25600000  1.0
  Nb5+  Nb56  1  0.87500000  0.76666667  0.25600000  1.0
  Nb5+  Nb57  1  0.37500000  0.76666667  0.25600000  1.0
  Nb5+  Nb58  1  0.62500000  0.76666667  0.25600000  1.0
  Nb5+  Nb59  1  0.12500000  0.76666667  0.25600000  1.0
  O2-  O60  1  0.87500000  0.56666667  0.00000000  1.0
  O2-  O61  1  0.37500000  0.56666667  0.00000000  1.0
  O2-  O62  1  0.62500000  0.56666667  0.00000000  1.0
  O2-  O63  1  0.12500000  0.56666667  0.00000000  1.0
  O2-  O64  1  0.87500000  0.36666667  0.00000000  1.0
  O2-  O65  1  0.37500000  0.36666667  0.00000000  1.0
  O2-  O66  1  0.62500000  0.36666667  0.00000000  1.0
  O2-  O67  1  0.12500000  0.36666667  0.00000000  1.0
  O2-  O68  1  0.87500000  0.16666667  0.00000000  1.0
  O2-  O69  1  0.37500000  0.16666667  0.00000000  1.0
  O2-  O70  1  0.62500000  0.16666667  0.00000000  1.0
  O2-  O71  1  0.12500000  0.16666667  0.00000000  1.0
  O2-  O72  1  0.87500000  0.96666667  0.00000000  1.0
  O2-  O73  1  0.37500000  0.96666667  0.00000000  1.0
  O2-  O74  1  0.62500000  0.96666667  0.00000000  1.0
  O2-  O75  1  0.12500000  0.96666667  0.00000000  1.0
  O2-  O76  1  0.87500000  0.76666667  0.00000000  1.0
  O2-  O77  1  0.37500000  0.76666667  0.00000000  1.0
  O2-  O78  1  0.62500000  0.76666667  0.00000000  1.0
  O2-  O79  1  0.12500000  0.76666667  0.00000000  1.0
  O2-  O80  1  0.87500000  0.56666667  0.50000000  1.0
  O2-  O81  1  0.37500000  0.56666667  0.50000000  1.0
  O2-  O82  1  0.62500000  0.56666667  0.50000000  1.0
  O2-  O83  1  0.12500000  0.56666667  0.50000000  1.0
  O2-  O84  1  0.87500000  0.36666667  0.50000000  1.0
  O2-  O85  1  0.37500000  0.36666667  0.50000000  1.0
  O2-  O86  1  0.62500000  0.36666667  0.50000000  1.0
  O2-  O87  1  0.12500000  0.36666667  0.50000000  1.0
  O2-  O88  1  0.87500000  0.16666667  0.50000000  1.0
  O2-  O89  1  0.37500000  0.16666667  0.50000000  1.0
  O2-  O90  1  0.62500000  0.16666667  0.50000000  1.0
  O2-  O91  1  0.12500000  0.16666667  0.50000000  1.0
  O2-  O92  1  0.87500000  0.96666667  0.50000000  1.0
  O2-  O93  1  0.37500000  0.96666667  0.50000000  1.0
  O2-  O94  1  0.62500000  0.96666667  0.50000000  1.0
  O2-  O95  1  0.12500000  0.96666667  0.50000000  1.0
  O2-  O96  1  0.87500000  0.76666667  0.50000000  1.0
  O2-  O97  1  0.37500000  0.76666667  0.50000000  1.0
  O2-  O98  1  0.62500000  0.76666667  0.50000000  1.0
  O2-  O99  1  0.12500000  0.76666667  0.50000000  1.0
  O2-  O100  1  0.87500000  0.66666667  0.74000000  1.0
  O2-  O101  1  0.37500000  0.66666667  0.74000000  1.0
  O2-  O102  1  0.62500000  0.66666667  0.74000000  1.0
  O2-  O103  1  0.12500000  0.66666667  0.74000000  1.0
  O2-  O104  1  0.87500000  0.46666667  0.74000000  1.0
  O2-  O105  1  0.37500000  0.46666667  0.74000000  1.0
  O2-  O106  1  0.62500000  0.46666667  0.74000000  1.0
  O2-  O107  1  0.12500000  0.46666667  0.74000000  1.0
  O2-  O108  1  0.87500000  0.26666667  0.74000000  1.0
  O2-  O109  1  0.37500000  0.26666667  0.74000000  1.0
  O2-  O110  1  0.62500000  0.26666667  0.74000000  1.0
  O2-  O111  1  0.12500000  0.26666667  0.74000000  1.0
  O2-  O112  1  0.87500000  0.06666667  0.74000000  1.0
  O2-  O113  1  0.37500000  0.06666667  0.74000000  1.0
  O2-  O114  1  0.62500000  0.06666667  0.74000000  1.0
  O2-  O115  1  0.12500000  0.06666667  0.74000000  1.0
  O2-  O116  1  0.87500000  0.86666667  0.74000000  1.0
  O2-  O117  1  0.37500000  0.86666667  0.74000000  1.0
  O2-  O118  1  0.62500000  0.86666667  0.74000000  1.0
  O2-  O119  1  0.12500000  0.86666667  0.74000000  1.0
  O2-  O120  1  0.87500000  0.66666667  0.26000000  1.0
  O2-  O121  1  0.37500000  0.66666667  0.26000000  1.0
  O2-  O122  1  0.62500000  0.66666667  0.26000000  1.0
  O2-  O123  1  0.12500000  0.66666667  0.26000000  1.0
  O2-  O124  1  0.87500000  0.46666667  0.26000000  1.0
  O2-  O125  1  0.37500000  0.46666667  0.26000000  1.0
  O2-  O126  1  0.62500000  0.46666667  0.26000000  1.0
  O2-  O127  1  0.12500000  0.46666667  0.26000000  1.0
  O2-  O128  1  0.87500000  0.26666667  0.26000000  1.0
  O2-  O129  1  0.37500000  0.26666667  0.26000000  1.0
  O2-  O130  1  0.62500000  0.26666667  0.26000000  1.0
  O2-  O131  1  0.12500000  0.26666667  0.26000000  1.0
  O2-  O132  1  0.87500000  0.06666667  0.26000000  1.0
  O2-  O133  1  0.37500000  0.06666667  0.26000000  1.0
  O2-  O134  1  0.62500000  0.06666667  0.26000000  1.0
  O2-  O135  1  0.12500000  0.06666667  0.26000000  1.0
  O2-  O136  1  0.87500000  0.86666667  0.26000000  1.0
  O2-  O137  1  0.37500000  0.86666667  0.26000000  1.0
  O2-  O138  1  0.62500000  0.86666667  0.26000000  1.0
  O2-  O139  1  0.12500000  0.86666667  0.26000000  1.0
  O2-  O140  1  0.00000000  0.56666667  0.71000000  1.0
  O2-  O141  1  0.50000000  0.56666667  0.71000000  1.0
  O2-  O142  1  0.75000000  0.56666667  0.71000000  1.0
  O2-  O143  1  0.25000000  0.56666667  0.71000000  1.0
  O2-  O144  1  0.00000000  0.36666667  0.71000000  1.0
  O2-  O145  1  0.50000000  0.36666667  0.71000000  1.0
  O2-  O146  1  0.75000000  0.36666667  0.71000000  1.0
  O2-  O147  1  0.25000000  0.36666667  0.71000000  1.0
  O2-  O148  1  0.00000000  0.16666667  0.71000000  1.0
  O2-  O149  1  0.50000000  0.16666667  0.71000000  1.0
  O2-  O150  1  0.75000000  0.16666667  0.71000000  1.0
  O2-  O151  1  0.25000000  0.16666667  0.71000000  1.0
  O2-  O152  1  0.00000000  0.96666667  0.71000000  1.0
  O2-  O153  1  0.50000000  0.96666667  0.71000000  1.0
  O2-  O154  1  0.75000000  0.96666667  0.71000000  1.0
  O2-  O155  1  0.25000000  0.96666667  0.71000000  1.0
  O2-  O156  1  0.00000000  0.76666667  0.71000000  1.0
  O2-  O157  1  0.50000000  0.76666667  0.71000000  1.0
  O2-  O158  1  0.75000000  0.76666667  0.71000000  1.0
  O2-  O159  1  0.25000000  0.76666667  0.71000000  1.0
  O2-  O160  1  0.00000000  0.56666667  0.29000000  1.0
  O2-  O161  1  0.50000000  0.56666667  0.29000000  1.0
  O2-  O162  1  0.75000000  0.56666667  0.29000000  1.0
  O2-  O163  1  0.25000000  0.56666667  0.29000000  1.0
  O2-  O164  1  0.00000000  0.36666667  0.29000000  1.0
  O2-  O165  1  0.50000000  0.36666667  0.29000000  1.0
  O2-  O166  1  0.75000000  0.36666667  0.29000000  1.0
  O2-  O167  1  0.25000000  0.36666667  0.29000000  1.0
  O2-  O168  1  0.00000000  0.16666667  0.29000000  1.0
  O2-  O169  1  0.50000000  0.16666667  0.29000000  1.0
  O2-  O170  1  0.75000000  0.16666667  0.29000000  1.0
  O2-  O171  1  0.25000000  0.16666667  0.29000000  1.0
  O2-  O172  1  0.00000000  0.96666667  0.29000000  1.0
  O2-  O173  1  0.50000000  0.96666667  0.29000000  1.0
  O2-  O174  1  0.75000000  0.96666667  0.29000000  1.0
  O2-  O175  1  0.25000000  0.96666667  0.29000000  1.0
  O2-  O176  1  0.00000000  0.76666667  0.29000000  1.0
  O2-  O177  1  0.50000000  0.76666667  0.29000000  1.0
  O2-  O178  1  0.75000000  0.76666667  0.29000000  1.0
  O2-  O179  1  0.25000000  0.76666667  0.29000000  1.0
