# generated using pymatgen
data_Li4Nd3SbTeO12
_symmetry_space_group_name_H-M   'P 1'
_cell_length_a   10.93043571
_cell_length_b   21.86087142
_cell_length_c   10.93043571
_cell_angle_alpha   109.47122063
_cell_angle_beta   109.47122063
_cell_angle_gamma   109.47122063
_symmetry_Int_Tables_number   1
_chemical_formula_structural   Li4Nd3SbTeO12
_chemical_formula_sum   'Li32 Nd24 Sb8 Te8 O96'
_cell_volume   2010.57615460
_cell_formula_units_Z   8
loop_
 _symmetry_equiv_pos_site_id
 _symmetry_equiv_pos_as_xyz
  1  'x, y, z'
loop_
 _atom_type_symbol
 _atom_type_oxidation_number
  Li+  1.0
  Nd3+  3.0
  Sb5+  5.0
  Te6+  6.0
  O2-  -2.0
loop_
 _atom_site_type_symbol
 _atom_site_label
 _atom_site_symmetry_multiplicity
 _atom_site_fract_x
 _atom_site_fract_y
 _atom_site_fract_z
 _atom_site_occupancy
  Li+  Li0  1  0.72750000  0.48675000  0.52080000  1.0
  Li+  Li0  1  0.72750000  0.98675000  0.52080000  1.0
  Li+  Li1  1  0.52650000  0.02365000  0.25400000  1.0
  Li+  Li1  1  0.52650000  0.52365000  0.25400000  1.0
  Li+  Li2  1  0.79330000  0.38625000  0.24600000  1.0
  Li+  Li2  1  0.79330000  0.88625000  0.24600000  1.0
  Li+  Li3  1  0.20670000  0.11375000  0.75400000  1.0
  Li+  Li3  1  0.20670000  0.61375000  0.75400000  1.0
  Li+  Li4  1  0.87500000  0.37500000  0.12500000  1.0
  Li+  Li4  1  0.87500000  0.87500000  0.12500000  1.0
  Li+  Li5  1  0.62500000  0.12500000  0.37500000  1.0
  Li+  Li5  1  0.62500000  0.62500000  0.37500000  1.0
  Li+  Li6  1  0.12500000  0.18750000  0.25000000  1.0
  Li+  Li6  1  0.12500000  0.68750000  0.25000000  1.0
  Li+  Li7  1  0.37500000  0.06250000  0.75000000  1.0
  Li+  Li7  1  0.37500000  0.56250000  0.75000000  1.0
  Li+  Li8  1  0.75000000  0.43750000  0.62500000  1.0
  Li+  Li8  1  0.75000000  0.93750000  0.62500000  1.0
  Li+  Li9  1  0.25000000  0.31250000  0.87500000  1.0
  Li+  Li9  1  0.25000000  0.81250000  0.87500000  1.0
  Li+  Li10  1  0.12500000  0.12500000  0.87500000  1.0
  Li+  Li10  1  0.12500000  0.62500000  0.87500000  1.0
  Li+  Li11  1  0.37500000  0.37500000  0.62500000  1.0
  Li+  Li11  1  0.37500000  0.87500000  0.62500000  1.0
  Li+  Li12  1  0.87500000  0.31250000  0.75000000  1.0
  Li+  Li12  1  0.87500000  0.81250000  0.75000000  1.0
  Li+  Li13  1  0.62500000  0.43750000  0.25000000  1.0
  Li+  Li13  1  0.62500000  0.93750000  0.25000000  1.0
  Li+  Li14  1  0.25000000  0.06250000  0.37500000  1.0
  Li+  Li14  1  0.25000000  0.56250000  0.37500000  1.0
  Li+  Li15  1  0.75000000  0.18750000  0.12500000  1.0
  Li+  Li15  1  0.75000000  0.68750000  0.12500000  1.0
  Nd3+  Nd1  1  0.75000000  0.31250000  0.37500000  1.0
  Nd3+  Nd1  1  0.75000000  0.81250000  0.37500000  1.0
  Nd3+  Nd1  1  0.25000000  0.43750000  0.12500000  1.0
  Nd3+  Nd1  1  0.25000000  0.93750000  0.12500000  1.0
  Nd3+  Nd1  1  0.12500000  0.37500000  0.37500000  1.0
  Nd3+  Nd1  1  0.12500000  0.87500000  0.37500000  1.0
  Nd3+  Nd1  1  0.37500000  0.12500000  0.12500000  1.0
  Nd3+  Nd1  1  0.37500000  0.62500000  0.12500000  1.0
  Nd3+  Nd1  1  0.37500000  0.31250000  0.25000000  1.0
  Nd3+  Nd1  1  0.37500000  0.81250000  0.25000000  1.0
  Nd3+  Nd1  1  0.12500000  0.43750000  0.75000000  1.0
  Nd3+  Nd1  1  0.12500000  0.93750000  0.75000000  1.0
  Nd3+  Nd1  1  0.25000000  0.18750000  0.62500000  1.0
  Nd3+  Nd1  1  0.25000000  0.68750000  0.62500000  1.0
  Nd3+  Nd1  1  0.75000000  0.06250000  0.87500000  1.0
  Nd3+  Nd1  1  0.75000000  0.56250000  0.87500000  1.0
  Nd3+  Nd1  1  0.87500000  0.12500000  0.62500000  1.0
  Nd3+  Nd1  1  0.87500000  0.62500000  0.62500000  1.0
  Nd3+  Nd1  1  0.62500000  0.37500000  0.87500000  1.0
  Nd3+  Nd1  1  0.62500000  0.87500000  0.87500000  1.0
  Nd3+  Nd1  1  0.62500000  0.18750000  0.75000000  1.0
  Nd3+  Nd1  1  0.62500000  0.68750000  0.75000000  1.0
  Nd3+  Nd1  1  0.87500000  0.06250000  0.25000000  1.0
  Nd3+  Nd1  1  0.87500000  0.56250000  0.25000000  1.0
  Sb5+  Sb28  1  0.00000000  0.00000000  0.50000000  1.0
  Sb5+  Sb28  1  0.00000000  0.50000000  0.50000000  1.0
  Sb5+  Sb29  1  0.50000000  0.00000000  0.00000000  1.0
  Sb5+  Sb29  1  0.50000000  0.50000000  0.00000000  1.0
  Sb5+  Sb30  1  0.50000000  0.00000000  0.50000000  1.0
  Sb5+  Sb30  1  0.50000000  0.50000000  0.50000000  1.0
  Sb5+  Sb31  1  0.50000000  0.25000000  0.00000000  1.0
  Sb5+  Sb31  1  0.50000000  0.75000000  0.00000000  1.0
  Te6+  Te32  1  0.50000000  0.25000000  0.50000000  1.0
  Te6+  Te32  1  0.50000000  0.75000000  0.50000000  1.0
  Te6+  Te33  1  0.00000000  0.25000000  0.00000000  1.0
  Te6+  Te33  1  0.00000000  0.75000000  0.00000000  1.0
  Te6+  Te34  1  0.00000000  0.25000000  0.50000000  1.0
  Te6+  Te34  1  0.00000000  0.75000000  0.50000000  1.0
  Te6+  Te35  1  0.00000000  0.00000000  0.00000000  1.0
  Te6+  Te35  1  0.00000000  0.50000000  0.00000000  1.0
  O2-  O1  1  0.90777000  0.26183500  0.32866000  1.0
  O2-  O1  1  0.90777000  0.76183500  0.32866000  1.0
  O2-  O1  1  0.59223000  0.21044500  0.11590000  1.0
  O2-  O1  1  0.59223000  0.71044500  0.11590000  1.0
  O2-  O1  1  0.30499000  0.48816500  0.38410000  1.0
  O2-  O1  1  0.30499000  0.98816500  0.38410000  1.0
  O2-  O1  1  0.19501000  0.03955500  0.17134000  1.0
  O2-  O1  1  0.19501000  0.53955500  0.17134000  1.0
  O2-  O1  1  0.38410000  0.40249500  0.47633000  1.0
  O2-  O1  1  0.38410000  0.90249500  0.47633000  1.0
  O2-  O1  1  0.17134000  0.34750500  0.57911000  1.0
  O2-  O1  1  0.17134000  0.84750500  0.57911000  1.0
  O2-  O1  1  0.32866000  0.20388500  0.02367000  1.0
  O2-  O1  1  0.32866000  0.70388500  0.02367000  1.0
  O2-  O1  1  0.11590000  0.04611500  0.92089000  1.0
  O2-  O1  1  0.11590000  0.54611500  0.92089000  1.0
  O2-  O1  1  0.57911000  0.33567000  0.19501000  1.0
  O2-  O1  1  0.57911000  0.83567000  0.19501000  1.0
  O2-  O1  1  0.47633000  0.44205000  0.30499000  1.0
  O2-  O1  1  0.47633000  0.94205000  0.30499000  1.0
  O2-  O1  1  0.92089000  0.30795000  0.59223000  1.0
  O2-  O1  1  0.92089000  0.80795000  0.59223000  1.0
  O2-  O1  1  0.02367000  0.41433000  0.90777000  1.0
  O2-  O1  1  0.02367000  0.91433000  0.90777000  1.0
  O2-  O1  1  0.09223000  0.23816500  0.67134000  1.0
  O2-  O1  1  0.09223000  0.73816500  0.67134000  1.0
  O2-  O1  1  0.40777000  0.28955500  0.88410000  1.0
  O2-  O1  1  0.40777000  0.78955500  0.88410000  1.0
  O2-  O1  1  0.69501000  0.01183500  0.61590000  1.0
  O2-  O1  1  0.69501000  0.51183500  0.61590000  1.0
  O2-  O1  1  0.80499000  0.46044500  0.82866000  1.0
  O2-  O1  1  0.80499000  0.96044500  0.82866000  1.0
  O2-  O1  1  0.61590000  0.09750500  0.52367000  1.0
  O2-  O1  1  0.61590000  0.59750500  0.52367000  1.0
  O2-  O1  1  0.82866000  0.15249500  0.42089000  1.0
  O2-  O1  1  0.82866000  0.65249500  0.42089000  1.0
  O2-  O1  1  0.67134000  0.29611500  0.97633000  1.0
  O2-  O1  1  0.67134000  0.79611500  0.97633000  1.0
  O2-  O1  1  0.88410000  0.45388500  0.07911000  1.0
  O2-  O1  1  0.88410000  0.95388500  0.07911000  1.0
  O2-  O1  1  0.42089000  0.16433000  0.80499000  1.0
  O2-  O1  1  0.42089000  0.66433000  0.80499000  1.0
  O2-  O1  1  0.52367000  0.05795000  0.69501000  1.0
  O2-  O1  1  0.52367000  0.55795000  0.69501000  1.0
  O2-  O1  1  0.07911000  0.19205000  0.40777000  1.0
  O2-  O1  1  0.07911000  0.69205000  0.40777000  1.0
  O2-  O1  1  0.97633000  0.08567000  0.09223000  1.0
  O2-  O1  1  0.97633000  0.58567000  0.09223000  1.0
  O2-  O1  1  0.07911000  0.09750500  0.67134000  1.0
  O2-  O1  1  0.07911000  0.59750500  0.67134000  1.0
  O2-  O1  1  0.97633000  0.15249500  0.88410000  1.0
  O2-  O1  1  0.97633000  0.65249500  0.88410000  1.0
  O2-  O1  1  0.42089000  0.29611500  0.61590000  1.0
  O2-  O1  1  0.42089000  0.79611500  0.61590000  1.0
  O2-  O1  1  0.52367000  0.45388500  0.82866000  1.0
  O2-  O1  1  0.52367000  0.95388500  0.82866000  1.0
  O2-  O1  1  0.40777000  0.16433000  0.52367000  1.0
  O2-  O1  1  0.40777000  0.66433000  0.52367000  1.0
  O2-  O1  1  0.09223000  0.05795000  0.42089000  1.0
  O2-  O1  1  0.09223000  0.55795000  0.42089000  1.0
  O2-  O1  1  0.80499000  0.19205000  0.97633000  1.0
  O2-  O1  1  0.80499000  0.69205000  0.97633000  1.0
  O2-  O1  1  0.69501000  0.08567000  0.07911000  1.0
  O2-  O1  1  0.69501000  0.58567000  0.07911000  1.0
  O2-  O1  1  0.88410000  0.23816500  0.80499000  1.0
  O2-  O1  1  0.88410000  0.73816500  0.80499000  1.0
  O2-  O1  1  0.67134000  0.28955500  0.69501000  1.0
  O2-  O1  1  0.67134000  0.78955500  0.69501000  1.0
  O2-  O1  1  0.82866000  0.01183500  0.40777000  1.0
  O2-  O1  1  0.82866000  0.51183500  0.40777000  1.0
  O2-  O1  1  0.61590000  0.46044500  0.09223000  1.0
  O2-  O1  1  0.61590000  0.96044500  0.09223000  1.0
  O2-  O1  1  0.92089000  0.40249500  0.32866000  1.0
  O2-  O1  1  0.92089000  0.90249500  0.32866000  1.0
  O2-  O1  1  0.02367000  0.34750500  0.11590000  1.0
  O2-  O1  1  0.02367000  0.84750500  0.11590000  1.0
  O2-  O1  1  0.57911000  0.20388500  0.38410000  1.0
  O2-  O1  1  0.57911000  0.70388500  0.38410000  1.0
  O2-  O1  1  0.47633000  0.04611500  0.17134000  1.0
  O2-  O1  1  0.47633000  0.54611500  0.17134000  1.0
  O2-  O1  1  0.59223000  0.33567000  0.47633000  1.0
  O2-  O1  1  0.59223000  0.83567000  0.47633000  1.0
  O2-  O1  1  0.90777000  0.44205000  0.57911000  1.0
  O2-  O1  1  0.90777000  0.94205000  0.57911000  1.0
  O2-  O1  1  0.19501000  0.30795000  0.02367000  1.0
  O2-  O1  1  0.19501000  0.80795000  0.02367000  1.0
  O2-  O1  1  0.30499000  0.41433000  0.92089000  1.0
  O2-  O1  1  0.30499000  0.91433000  0.92089000  1.0
  O2-  O1  1  0.11590000  0.26183500  0.19501000  1.0
  O2-  O1  1  0.11590000  0.76183500  0.19501000  1.0
  O2-  O1  1  0.32866000  0.21044500  0.30499000  1.0
  O2-  O1  1  0.32866000  0.71044500  0.30499000  1.0
  O2-  O1  1  0.17134000  0.48816500  0.59223000  1.0
  O2-  O1  1  0.17134000  0.98816500  0.59223000  1.0
  O2-  O1  1  0.38410000  0.03955500  0.90777000  1.0
  O2-  O1  1  0.38410000  0.53955500  0.90777000  1.0
