# generated using pymatgen
data_Li5ErZrCl12
_symmetry_space_group_name_H-M   'P 1'
_cell_length_a   12.82300000
_cell_length_b   12.03440000
_cell_length_c   22.33400000
_cell_angle_alpha   90.00000000
_cell_angle_beta   90.00000000
_cell_angle_gamma   90.00000000
_symmetry_Int_Tables_number   1
_chemical_formula_structural   Li5ErZrCl12
_chemical_formula_sum   'Li40 Er8 Zr8 Cl96'
_cell_volume   3446.51836154
_cell_formula_units_Z   8
loop_
 _symmetry_equiv_pos_site_id
 _symmetry_equiv_pos_as_xyz
  1  'x, y, z'
loop_
 _atom_type_symbol
 _atom_type_oxidation_number
  Li+  1.0
  Er3+  3.0
  Zr4+  4.0
  Cl-  -1.0
loop_
 _atom_site_type_symbol
 _atom_site_label
 _atom_site_symmetry_multiplicity
 _atom_site_fract_x
 _atom_site_fract_y
 _atom_site_fract_z
 _atom_site_occupancy
  Li+  Li0  1  0.55070622  0.43693440  0.71230391  1.0
  Li+  Li1  1  0.55050000  0.43900000  0.20750000  1.0
  Li+  Li2  1  0.30050000  0.06100000  0.45750000  1.0
  Li+  Li3  1  0.30050000  0.06100000  0.95750000  1.0
  Li+  Li4  1  0.80050000  0.06100000  0.45750000  1.0
  Li+  Li5  1  0.79933734  0.05770467  0.95593977  1.0
  Li+  Li6  1  0.30150000  0.87600000  0.28500000  1.0
  Li+  Li7  1  0.30150000  0.87600000  0.78500000  1.0
  Li+  Li8  1  0.80615154  0.87689775  0.28246171  1.0
  Li+  Li9  1  0.80284456  0.87867354  0.78725606  1.0
  Li+  Li10  1  0.05150000  0.62400000  0.53500000  1.0
  Li+  Li11  1  0.05150000  0.62400000  0.03500000  1.0
  Li+  Li12  1  0.55150000  0.62400000  0.53500000  1.0
  Li+  Li13  1  0.55150000  0.62400000  0.03500000  1.0
  Li+  Li14  1  0.80150000  0.87600000  0.46500000  1.0
  Li+  Li15  1  0.80150000  0.87600000  0.96500000  1.0
  Li+  Li16  1  0.29450000  0.63660000  0.28800000  1.0
  Li+  Li17  1  0.29450000  0.63660000  0.78800000  1.0
  Li+  Li18  1  0.79450000  0.63660000  0.28800000  1.0
  Li+  Li19  1  0.79450000  0.63660000  0.78800000  1.0
  Li+  Li20  1  0.20550000  0.36340000  0.53800000  1.0
  Li+  Li21  1  0.20550000  0.36340000  0.03800000  1.0
  Li+  Li22  1  0.70550000  0.36340000  0.53800000  1.0
  Li+  Li23  1  0.70550000  0.36340000  0.03800000  1.0
  Li+  Li24  1  0.04562704  0.86232843  0.71332944  1.0
  Li+  Li25  1  0.04450000  0.86340000  0.21200000  1.0
  Li+  Li26  1  0.54450000  0.86340000  0.71200000  1.0
  Li+  Li27  1  0.54450000  0.86340000  0.21200000  1.0
  Li+  Li28  1  0.20550000  0.36340000  0.71200000  1.0
  Li+  Li29  1  0.20550000  0.36340000  0.21200000  1.0
  Li+  Li30  1  0.70550000  0.36340000  0.71200000  1.0
  Li+  Li31  1  0.70550000  0.36340000  0.21200000  1.0
  Li+  Li32  1  0.04450000  0.86340000  0.53800000  1.0
  Li+  Li33  1  0.04601087  0.86032194  0.03624177  1.0
  Li+  Li34  1  0.54450000  0.86340000  0.53800000  1.0
  Li+  Li35  1  0.54450000  0.86340000  0.03800000  1.0
  Li+  Li36  1  0.45098354  0.13629246  0.28541853  1.0
  Li+  Li37  1  0.45550000  0.13660000  0.78800000  1.0
  Li+  Li38  1  0.95550000  0.13660000  0.28800000  1.0
  Li+  Li39  1  0.95550000  0.13660000  0.78800000  1.0
  Er3+  Er40  1  0.04760000  0.86770000  0.37500000  1.0
  Er3+  Er41  1  0.04760000  0.86770000  0.87500000  1.0
  Er3+  Er42  1  0.54760000  0.86770000  0.37500000  1.0
  Er3+  Er43  1  0.54849790  0.86899983  0.87421299  1.0
  Er3+  Er44  1  0.95388734  0.13585046  0.62433008  1.0
  Er3+  Er45  1  0.95240000  0.13230000  0.12500000  1.0
  Er3+  Er46  1  0.29760000  0.63230000  0.62500000  1.0
  Er3+  Er47  1  0.29760000  0.63230000  0.12500000  1.0
  Zr4+  Zr48  1  0.20240000  0.36770000  0.37500000  1.0
  Zr4+  Zr49  1  0.20240000  0.36770000  0.87500000  1.0
  Zr4+  Zr50  1  0.70240000  0.36770000  0.37500000  1.0
  Zr4+  Zr51  1  0.70240000  0.36770000  0.87500000  1.0
  Zr4+  Zr52  1  0.45240000  0.13230000  0.62500000  1.0
  Zr4+  Zr53  1  0.45109524  0.13690829  0.12354565  1.0
  Zr4+  Zr54  1  0.79393606  0.63336963  0.62844568  1.0
  Zr4+  Zr55  1  0.79760000  0.63230000  0.12500000  1.0
  Cl-  Cl56  1  0.37250000  0.50960000  0.54260000  1.0
  Cl-  Cl57  1  0.37248534  0.51218902  0.04305851  1.0
  Cl-  Cl58  1  0.87144595  0.51121768  0.54014239  1.0
  Cl-  Cl59  1  0.87053477  0.51038489  0.04173630  1.0
  Cl-  Cl60  1  0.37750000  0.00960000  0.70740000  1.0
  Cl-  Cl61  1  0.37750000  0.00960000  0.20740000  1.0
  Cl-  Cl62  1  0.87750000  0.00960000  0.70740000  1.0
  Cl-  Cl63  1  0.87750000  0.00960000  0.20740000  1.0
  Cl-  Cl64  1  0.12501130  0.49108015  0.29210137  1.0
  Cl-  Cl65  1  0.12750000  0.49040000  0.79260000  1.0
  Cl-  Cl66  1  0.62762529  0.49053545  0.29665107  1.0
  Cl-  Cl67  1  0.62750000  0.49040000  0.79260000  1.0
  Cl-  Cl68  1  0.12250000  0.99040000  0.45740000  1.0
  Cl-  Cl69  1  0.12250000  0.99040000  0.95740000  1.0
  Cl-  Cl70  1  0.62250000  0.99040000  0.45740000  1.0
  Cl-  Cl71  1  0.62250000  0.99040000  0.95740000  1.0
  Cl-  Cl72  1  0.12750000  0.49040000  0.45740000  1.0
  Cl-  Cl73  1  0.12750000  0.49040000  0.95740000  1.0
  Cl-  Cl74  1  0.62750000  0.49040000  0.45740000  1.0
  Cl-  Cl75  1  0.62750000  0.49040000  0.95740000  1.0
  Cl-  Cl76  1  0.12250000  0.99040000  0.29260000  1.0
  Cl-  Cl77  1  0.12246987  0.98921958  0.79601573  1.0
  Cl-  Cl78  1  0.62250000  0.99040000  0.29260000  1.0
  Cl-  Cl79  1  0.62250000  0.99040000  0.79260000  1.0
  Cl-  Cl80  1  0.37250000  0.50960000  0.70740000  1.0
  Cl-  Cl81  1  0.37250000  0.50960000  0.20740000  1.0
  Cl-  Cl82  1  0.87622552  0.50913603  0.70580676  1.0
  Cl-  Cl83  1  0.87250000  0.50960000  0.20740000  1.0
  Cl-  Cl84  1  0.37750000  0.00960000  0.54260000  1.0
  Cl-  Cl85  1  0.37750000  0.00960000  0.04260000  1.0
  Cl-  Cl86  1  0.87750000  0.00960000  0.54260000  1.0
  Cl-  Cl87  1  0.87750000  0.00960000  0.04260000  1.0
  Cl-  Cl88  1  0.46301482  0.75353510  0.29054730  1.0
  Cl-  Cl89  1  0.45829537  0.75073462  0.79140106  1.0
  Cl-  Cl90  1  0.96060000  0.75410000  0.29280000  1.0
  Cl-  Cl91  1  0.96060000  0.75410000  0.79280000  1.0
  Cl-  Cl92  1  0.28940000  0.25410000  0.45720000  1.0
  Cl-  Cl93  1  0.28940000  0.25410000  0.95720000  1.0
  Cl-  Cl94  1  0.78940000  0.25410000  0.45720000  1.0
  Cl-  Cl95  1  0.78940000  0.25410000  0.95720000  1.0
  Cl-  Cl96  1  0.03940000  0.24590000  0.54280000  1.0
  Cl-  Cl97  1  0.03940000  0.24590000  0.04280000  1.0
  Cl-  Cl98  1  0.54175471  0.24819096  0.54551175  1.0
  Cl-  Cl99  1  0.54123536  0.24899644  0.04215776  1.0
  Cl-  Cl100  1  0.21060000  0.74590000  0.70720000  1.0
  Cl-  Cl101  1  0.21060000  0.74590000  0.20720000  1.0
  Cl-  Cl102  1  0.71355124  0.74789702  0.70555458  1.0
  Cl-  Cl103  1  0.71060000  0.74590000  0.20720000  1.0
  Cl-  Cl104  1  0.03940000  0.24590000  0.70720000  1.0
  Cl-  Cl105  1  0.03848014  0.24406418  0.20571229  1.0
  Cl-  Cl106  1  0.53741929  0.24362927  0.70757666  1.0
  Cl-  Cl107  1  0.53940000  0.24590000  0.20720000  1.0
  Cl-  Cl108  1  0.21060000  0.74590000  0.54280000  1.0
  Cl-  Cl109  1  0.21060000  0.74590000  0.04280000  1.0
  Cl-  Cl110  1  0.70845870  0.74496356  0.53562433  1.0
  Cl-  Cl111  1  0.71060000  0.74590000  0.04280000  1.0
  Cl-  Cl112  1  0.46060000  0.75410000  0.45720000  1.0
  Cl-  Cl113  1  0.46076264  0.75781600  0.95977840  1.0
  Cl-  Cl114  1  0.96060000  0.75410000  0.45720000  1.0
  Cl-  Cl115  1  0.96060000  0.75410000  0.95720000  1.0
  Cl-  Cl116  1  0.29083526  0.25598945  0.29513557  1.0
  Cl-  Cl117  1  0.28940000  0.25410000  0.79280000  1.0
  Cl-  Cl118  1  0.78728467  0.25429058  0.29295746  1.0
  Cl-  Cl119  1  0.78940000  0.25410000  0.79280000  1.0
  Cl-  Cl120  1  0.35695561  0.50056668  0.37275441  1.0
  Cl-  Cl121  1  0.36145522  0.49951514  0.87164613  1.0
  Cl-  Cl122  1  0.86220000  0.50230000  0.37500000  1.0
  Cl-  Cl123  1  0.86220000  0.50230000  0.87500000  1.0
  Cl-  Cl124  1  0.38780000  0.00230000  0.37500000  1.0
  Cl-  Cl125  1  0.38780000  0.00230000  0.87500000  1.0
  Cl-  Cl126  1  0.88780000  0.00230000  0.37500000  1.0
  Cl-  Cl127  1  0.88780000  0.00230000  0.87500000  1.0
  Cl-  Cl128  1  0.13780000  0.49770000  0.62500000  1.0
  Cl-  Cl129  1  0.13780000  0.49770000  0.12500000  1.0
  Cl-  Cl130  1  0.63599312  0.49603648  0.62644384  1.0
  Cl-  Cl131  1  0.63780000  0.49770000  0.12500000  1.0
  Cl-  Cl132  1  0.10885099  0.99767213  0.62602974  1.0
  Cl-  Cl133  1  0.11499153  0.99753901  0.12815702  1.0
  Cl-  Cl134  1  0.61220000  0.99770000  0.62500000  1.0
  Cl-  Cl135  1  0.61220000  0.99770000  0.12500000  1.0
  Cl-  Cl136  1  0.04175000  0.25150000  0.37500000  1.0
  Cl-  Cl137  1  0.04331137  0.25078199  0.87127247  1.0
  Cl-  Cl138  1  0.54175000  0.25150000  0.37500000  1.0
  Cl-  Cl139  1  0.54175000  0.25150000  0.87500000  1.0
  Cl-  Cl140  1  0.20825000  0.75150000  0.37500000  1.0
  Cl-  Cl141  1  0.20825000  0.75150000  0.87500000  1.0
  Cl-  Cl142  1  0.70825000  0.75150000  0.37500000  1.0
  Cl-  Cl143  1  0.70806662  0.75116946  0.87806704  1.0
  Cl-  Cl144  1  0.45893028  0.74885946  0.62676398  1.0
  Cl-  Cl145  1  0.45825000  0.74850000  0.12500000  1.0
  Cl-  Cl146  1  0.95825000  0.74850000  0.62500000  1.0
  Cl-  Cl147  1  0.95825000  0.74850000  0.12500000  1.0
  Cl-  Cl148  1  0.29175000  0.24850000  0.62500000  1.0
  Cl-  Cl149  1  0.28958841  0.24822319  0.12749898  1.0
  Cl-  Cl150  1  0.79175000  0.24850000  0.62500000  1.0
  Cl-  Cl151  1  0.79175000  0.24850000  0.12500000  1.0
