# generated using pymatgen
data_Li5ErZrCl12
_symmetry_space_group_name_H-M   'P 1'
_cell_length_a   22.40895693
_cell_length_b   12.86603630
_cell_length_c   12.07478962
_cell_angle_alpha   90.00000000
_cell_angle_beta   90.00000000
_cell_angle_gamma   90.00000000
_symmetry_Int_Tables_number   1
_chemical_formula_structural   Li5ErZrCl12
_chemical_formula_sum   'Li40 Er8 Zr8 Cl96'
_cell_volume   3481.33636808
_cell_formula_units_Z   8
loop_
 _symmetry_equiv_pos_site_id
 _symmetry_equiv_pos_as_xyz
  1  'x, y, z'
loop_
 _atom_type_symbol
 _atom_type_oxidation_number
  Li+  1.0
  Er3+  3.0
  Zr4+  4.0
  Cl-  -1.0
loop_
 _atom_site_type_symbol
 _atom_site_label
 _atom_site_symmetry_multiplicity
 _atom_site_fract_x
 _atom_site_fract_y
 _atom_site_fract_z
 _atom_site_occupancy
  Li+  Li0  1  0.95750000  0.11616667  0.56100000  1.0
  Li+  Li1  1  0.45750000  0.11616667  0.56100000  1.0
  Li+  Li2  1  0.70750000  0.36616667  0.93900000  1.0
  Li+  Li3  1  0.20750000  0.36616667  0.93900000  1.0
  Li+  Li4  1  0.70750000  0.86616667  0.93900000  1.0
  Li+  Li5  1  0.20750000  0.86616667  0.93900000  1.0
  Li+  Li6  1  0.53500000  0.36516667  0.12400000  1.0
  Li+  Li7  1  0.03500000  0.36516667  0.12400000  1.0
  Li+  Li8  1  0.53500000  0.86516667  0.12400000  1.0
  Li+  Li9  1  0.03500000  0.86516667  0.12400000  1.0
  Li+  Li10  1  0.78500000  0.61516667  0.37600000  1.0
  Li+  Li11  1  0.28500000  0.61516667  0.37600000  1.0
  Li+  Li12  1  0.78500000  0.11516667  0.37600000  1.0
  Li+  Li13  1  0.28500000  0.11516667  0.37600000  1.0
  Li+  Li14  1  0.71500000  0.86516667  0.12400000  1.0
  Li+  Li15  1  0.21500000  0.86516667  0.12400000  1.0
  Li+  Li16  1  0.53800000  0.37216667  0.36340000  1.0
  Li+  Li17  1  0.03800000  0.37216667  0.36340000  1.0
  Li+  Li18  1  0.53800000  0.87216667  0.36340000  1.0
  Li+  Li19  1  0.03800000  0.87216667  0.36340000  1.0
  Li+  Li20  1  0.78800000  0.46116667  0.63660000  1.0
  Li+  Li21  1  0.28800000  0.46116667  0.63660000  1.0
  Li+  Li22  1  0.78800000  0.96116667  0.63660000  1.0
  Li+  Li23  1  0.28800000  0.96116667  0.63660000  1.0
  Li+  Li24  1  0.96200000  0.62216667  0.13660000  1.0
  Li+  Li25  1  0.46200000  0.62216667  0.13660000  1.0
  Li+  Li26  1  0.96200000  0.12216667  0.13660000  1.0
  Li+  Li27  1  0.46200000  0.12216667  0.13660000  1.0
  Li+  Li28  1  0.96200000  0.46116667  0.63660000  1.0
  Li+  Li29  1  0.46200000  0.46116667  0.63660000  1.0
  Li+  Li30  1  0.96200000  0.96116667  0.63660000  1.0
  Li+  Li31  1  0.46200000  0.96116667  0.63660000  1.0
  Li+  Li32  1  0.78800000  0.62216667  0.13660000  1.0
  Li+  Li33  1  0.28800000  0.62216667  0.13660000  1.0
  Li+  Li34  1  0.78800000  0.12216667  0.13660000  1.0
  Li+  Li35  1  0.28800000  0.12216667  0.13660000  1.0
  Li+  Li36  1  0.53800000  0.21116667  0.86340000  1.0
  Li+  Li37  1  0.03800000  0.21116667  0.86340000  1.0
  Li+  Li38  1  0.53800000  0.71116667  0.86340000  1.0
  Li+  Li39  1  0.03800000  0.71116667  0.86340000  1.0
  Er3+  Er40  1  0.62500000  0.61906667  0.13230000  1.0
  Er3+  Er41  1  0.12500000  0.61906667  0.13230000  1.0
  Er3+  Er42  1  0.62500000  0.11906667  0.13230000  1.0
  Er3+  Er43  1  0.12500000  0.11906667  0.13230000  1.0
  Er3+  Er44  1  0.87500000  0.71426667  0.86770000  1.0
  Er3+  Er45  1  0.37500000  0.71426667  0.86770000  1.0
  Er3+  Er46  1  0.87500000  0.36906667  0.36770000  1.0
  Er3+  Er47  1  0.37500000  0.36906667  0.36770000  1.0
  Zr4+  Zr48  1  0.62500000  0.46426667  0.63230000  1.0
  Zr4+  Zr49  1  0.12500000  0.46426667  0.63230000  1.0
  Zr4+  Zr50  1  0.62500000  0.96426667  0.63230000  1.0
  Zr4+  Zr51  1  0.12500000  0.96426667  0.63230000  1.0
  Zr4+  Zr52  1  0.87500000  0.21426667  0.86770000  1.0
  Zr4+  Zr53  1  0.37500000  0.21426667  0.86770000  1.0
  Zr4+  Zr54  1  0.87500000  0.86906667  0.36770000  1.0
  Zr4+  Zr55  1  0.37500000  0.86906667  0.36770000  1.0
  Cl-  Cl56  1  0.79260000  0.29416667  0.49040000  1.0
  Cl-  Cl57  1  0.29260000  0.29416667  0.49040000  1.0
  Cl-  Cl58  1  0.79260000  0.79416667  0.49040000  1.0
  Cl-  Cl59  1  0.29260000  0.79416667  0.49040000  1.0
  Cl-  Cl60  1  0.95740000  0.28916667  0.99040000  1.0
  Cl-  Cl61  1  0.45740000  0.28916667  0.99040000  1.0
  Cl-  Cl62  1  0.95740000  0.78916667  0.99040000  1.0
  Cl-  Cl63  1  0.45740000  0.78916667  0.99040000  1.0
  Cl-  Cl64  1  0.54260000  0.53916667  0.50960000  1.0
  Cl-  Cl65  1  0.04260000  0.53916667  0.50960000  1.0
  Cl-  Cl66  1  0.54260000  0.03916667  0.50960000  1.0
  Cl-  Cl67  1  0.04260000  0.03916667  0.50960000  1.0
  Cl-  Cl68  1  0.70740000  0.54416667  0.00960000  1.0
  Cl-  Cl69  1  0.20740000  0.54416667  0.00960000  1.0
  Cl-  Cl70  1  0.70740000  0.04416667  0.00960000  1.0
  Cl-  Cl71  1  0.20740000  0.04416667  0.00960000  1.0
  Cl-  Cl72  1  0.70740000  0.53916667  0.50960000  1.0
  Cl-  Cl73  1  0.20740000  0.53916667  0.50960000  1.0
  Cl-  Cl74  1  0.70740000  0.03916667  0.50960000  1.0
  Cl-  Cl75  1  0.20740000  0.03916667  0.50960000  1.0
  Cl-  Cl76  1  0.54260000  0.54416667  0.00960000  1.0
  Cl-  Cl77  1  0.04260000  0.54416667  0.00960000  1.0
  Cl-  Cl78  1  0.54260000  0.04416667  0.00960000  1.0
  Cl-  Cl79  1  0.04260000  0.04416667  0.00960000  1.0
  Cl-  Cl80  1  0.95740000  0.29416667  0.49040000  1.0
  Cl-  Cl81  1  0.45740000  0.29416667  0.49040000  1.0
  Cl-  Cl82  1  0.95740000  0.79416667  0.49040000  1.0
  Cl-  Cl83  1  0.45740000  0.79416667  0.49040000  1.0
  Cl-  Cl84  1  0.79260000  0.28916667  0.99040000  1.0
  Cl-  Cl85  1  0.29260000  0.28916667  0.99040000  1.0
  Cl-  Cl86  1  0.79260000  0.78916667  0.99040000  1.0
  Cl-  Cl87  1  0.29260000  0.78916667  0.99040000  1.0
  Cl-  Cl88  1  0.54280000  0.20606667  0.24590000  1.0
  Cl-  Cl89  1  0.04280000  0.20606667  0.24590000  1.0
  Cl-  Cl90  1  0.54280000  0.70606667  0.24590000  1.0
  Cl-  Cl91  1  0.04280000  0.70606667  0.24590000  1.0
  Cl-  Cl92  1  0.70720000  0.37726667  0.74590000  1.0
  Cl-  Cl93  1  0.20720000  0.37726667  0.74590000  1.0
  Cl-  Cl94  1  0.70720000  0.87726667  0.74590000  1.0
  Cl-  Cl95  1  0.20720000  0.87726667  0.74590000  1.0
  Cl-  Cl96  1  0.79280000  0.62726667  0.75410000  1.0
  Cl-  Cl97  1  0.29280000  0.62726667  0.75410000  1.0
  Cl-  Cl98  1  0.79280000  0.12726667  0.75410000  1.0
  Cl-  Cl99  1  0.29280000  0.12726667  0.75410000  1.0
  Cl-  Cl100  1  0.95720000  0.45606667  0.25410000  1.0
  Cl-  Cl101  1  0.45720000  0.45606667  0.25410000  1.0
  Cl-  Cl102  1  0.95720000  0.95606667  0.25410000  1.0
  Cl-  Cl103  1  0.45720000  0.95606667  0.25410000  1.0
  Cl-  Cl104  1  0.95720000  0.62726667  0.75410000  1.0
  Cl-  Cl105  1  0.45720000  0.62726667  0.75410000  1.0
  Cl-  Cl106  1  0.95720000  0.12726667  0.75410000  1.0
  Cl-  Cl107  1  0.45720000  0.12726667  0.75410000  1.0
  Cl-  Cl108  1  0.79280000  0.45606667  0.25410000  1.0
  Cl-  Cl109  1  0.29280000  0.45606667  0.25410000  1.0
  Cl-  Cl110  1  0.79280000  0.95606667  0.25410000  1.0
  Cl-  Cl111  1  0.29280000  0.95606667  0.25410000  1.0
  Cl-  Cl112  1  0.70720000  0.20606667  0.24590000  1.0
  Cl-  Cl113  1  0.20720000  0.20606667  0.24590000  1.0
  Cl-  Cl114  1  0.70720000  0.70606667  0.24590000  1.0
  Cl-  Cl115  1  0.20720000  0.70606667  0.24590000  1.0
  Cl-  Cl116  1  0.54280000  0.37726667  0.74590000  1.0
  Cl-  Cl117  1  0.04280000  0.37726667  0.74590000  1.0
  Cl-  Cl118  1  0.54280000  0.87726667  0.74590000  1.0
  Cl-  Cl119  1  0.04280000  0.87726667  0.74590000  1.0
  Cl-  Cl120  1  0.62500000  0.30446667  0.49770000  1.0
  Cl-  Cl121  1  0.12500000  0.30446667  0.49770000  1.0
  Cl-  Cl122  1  0.62500000  0.80446667  0.49770000  1.0
  Cl-  Cl123  1  0.12500000  0.80446667  0.49770000  1.0
  Cl-  Cl124  1  0.62500000  0.27886667  0.99770000  1.0
  Cl-  Cl125  1  0.12500000  0.27886667  0.99770000  1.0
  Cl-  Cl126  1  0.62500000  0.77886667  0.99770000  1.0
  Cl-  Cl127  1  0.12500000  0.77886667  0.99770000  1.0
  Cl-  Cl128  1  0.87500000  0.52886667  0.50230000  1.0
  Cl-  Cl129  1  0.37500000  0.52886667  0.50230000  1.0
  Cl-  Cl130  1  0.87500000  0.02886667  0.50230000  1.0
  Cl-  Cl131  1  0.37500000  0.02886667  0.50230000  1.0
  Cl-  Cl132  1  0.87500000  0.55446667  0.00230000  1.0
  Cl-  Cl133  1  0.37500000  0.55446667  0.00230000  1.0
  Cl-  Cl134  1  0.87500000  0.05446667  0.00230000  1.0
  Cl-  Cl135  1  0.37500000  0.05446667  0.00230000  1.0
  Cl-  Cl136  1  0.62500000  0.62491667  0.74850000  1.0
  Cl-  Cl137  1  0.12500000  0.62491667  0.74850000  1.0
  Cl-  Cl138  1  0.62500000  0.12491667  0.74850000  1.0
  Cl-  Cl139  1  0.12500000  0.12491667  0.74850000  1.0
  Cl-  Cl140  1  0.62500000  0.45841667  0.24850000  1.0
  Cl-  Cl141  1  0.12500000  0.45841667  0.24850000  1.0
  Cl-  Cl142  1  0.62500000  0.95841667  0.24850000  1.0
  Cl-  Cl143  1  0.12500000  0.95841667  0.24850000  1.0
  Cl-  Cl144  1  0.87500000  0.20841667  0.25150000  1.0
  Cl-  Cl145  1  0.37500000  0.20841667  0.25150000  1.0
  Cl-  Cl146  1  0.87500000  0.70841667  0.25150000  1.0
  Cl-  Cl147  1  0.37500000  0.70841667  0.25150000  1.0
  Cl-  Cl148  1  0.87500000  0.37491667  0.75150000  1.0
  Cl-  Cl149  1  0.37500000  0.37491667  0.75150000  1.0
  Cl-  Cl150  1  0.87500000  0.87491667  0.75150000  1.0
  Cl-  Cl151  1  0.37500000  0.87491667  0.75150000  1.0
