# generated using pymatgen
data_Li5ErZrCl12
_symmetry_space_group_name_H-M   'P 1'
_cell_length_a   12.82300000
_cell_length_b   22.33400000
_cell_length_c   12.03440000
_cell_angle_alpha   90.00000000
_cell_angle_beta   90.00000000
_cell_angle_gamma   90.00000000
_symmetry_Int_Tables_number   1
_chemical_formula_structural   Li5ErZrCl12
_chemical_formula_sum   'Li40 Er8 Zr8 Cl96'
_cell_volume   3446.51836154
_cell_formula_units_Z   8
loop_
 _symmetry_equiv_pos_site_id
 _symmetry_equiv_pos_as_xyz
  1  'x, y, z'
loop_
 _atom_type_symbol
 _atom_type_oxidation_number
  Li+  1.0
  Er3+  3.0
  Zr4+  4.0
  Cl-  -1.0
loop_
 _atom_site_type_symbol
 _atom_site_label
 _atom_site_symmetry_multiplicity
 _atom_site_fract_x
 _atom_site_fract_y
 _atom_site_fract_z
 _atom_site_occupancy
  Li+  Li0  1  0.55050000  0.04250000  0.56100000  1.0
  Li+  Li0  1  0.55050000  0.54250000  0.56100000  1.0
  Li+  Li1  1  0.30050000  0.29250000  0.93900000  1.0
  Li+  Li1  1  0.30050000  0.79250000  0.93900000  1.0
  Li+  Li2  1  0.80050000  0.29250000  0.93900000  1.0
  Li+  Li2  1  0.80050000  0.79250000  0.93900000  1.0
  Li+  Li3  1  0.30150000  0.46500000  0.12400000  1.0
  Li+  Li3  1  0.30150000  0.96500000  0.12400000  1.0
  Li+  Li4  1  0.80150000  0.46500000  0.12400000  1.0
  Li+  Li4  1  0.80150000  0.96500000  0.12400000  1.0
  Li+  Li5  1  0.05150000  0.21500000  0.37600000  1.0
  Li+  Li5  1  0.05150000  0.71500000  0.37600000  1.0
  Li+  Li6  1  0.55150000  0.21500000  0.37600000  1.0
  Li+  Li6  1  0.55150000  0.71500000  0.37600000  1.0
  Li+  Li7  1  0.80150000  0.28500000  0.12400000  1.0
  Li+  Li7  1  0.80150000  0.78500000  0.12400000  1.0
  Li+  Li8  1  0.29450000  0.46200000  0.36340000  1.0
  Li+  Li8  1  0.29450000  0.96200000  0.36340000  1.0
  Li+  Li9  1  0.79450000  0.46200000  0.36340000  1.0
  Li+  Li9  1  0.79450000  0.96200000  0.36340000  1.0
  Li+  Li10  1  0.20550000  0.21200000  0.63660000  1.0
  Li+  Li10  1  0.20550000  0.71200000  0.63660000  1.0
  Li+  Li11  1  0.70550000  0.21200000  0.63660000  1.0
  Li+  Li11  1  0.70550000  0.71200000  0.63660000  1.0
  Li+  Li12  1  0.04450000  0.03800000  0.13660000  1.0
  Li+  Li12  1  0.04450000  0.53800000  0.13660000  1.0
  Li+  Li13  1  0.54450000  0.03800000  0.13660000  1.0
  Li+  Li13  1  0.54450000  0.53800000  0.13660000  1.0
  Li+  Li14  1  0.20550000  0.03800000  0.63660000  1.0
  Li+  Li14  1  0.20550000  0.53800000  0.63660000  1.0
  Li+  Li15  1  0.70550000  0.03800000  0.63660000  1.0
  Li+  Li15  1  0.70550000  0.53800000  0.63660000  1.0
  Li+  Li16  1  0.04450000  0.21200000  0.13660000  1.0
  Li+  Li16  1  0.04450000  0.71200000  0.13660000  1.0
  Li+  Li17  1  0.54450000  0.21200000  0.13660000  1.0
  Li+  Li17  1  0.54450000  0.71200000  0.13660000  1.0
  Li+  Li18  1  0.45550000  0.46200000  0.86340000  1.0
  Li+  Li18  1  0.45550000  0.96200000  0.86340000  1.0
  Li+  Li19  1  0.95550000  0.46200000  0.86340000  1.0
  Li+  Li19  1  0.95550000  0.96200000  0.86340000  1.0
  Er3+  Er20  1  0.04760000  0.37500000  0.13230000  1.0
  Er3+  Er20  1  0.04760000  0.87500000  0.13230000  1.0
  Er3+  Er21  1  0.54760000  0.37500000  0.13230000  1.0
  Er3+  Er21  1  0.54760000  0.87500000  0.13230000  1.0
  Er3+  Er22  1  0.95240000  0.12500000  0.86770000  1.0
  Er3+  Er22  1  0.95240000  0.62500000  0.86770000  1.0
  Er3+  Er23  1  0.29760000  0.12500000  0.36770000  1.0
  Er3+  Er23  1  0.29760000  0.62500000  0.36770000  1.0
  Zr4+  Zr24  1  0.20240000  0.37500000  0.63230000  1.0
  Zr4+  Zr24  1  0.20240000  0.87500000  0.63230000  1.0
  Zr4+  Zr25  1  0.70240000  0.37500000  0.63230000  1.0
  Zr4+  Zr25  1  0.70240000  0.87500000  0.63230000  1.0
  Zr4+  Zr26  1  0.45240000  0.12500000  0.86770000  1.0
  Zr4+  Zr26  1  0.45240000  0.62500000  0.86770000  1.0
  Zr4+  Zr27  1  0.79760000  0.12500000  0.36770000  1.0
  Zr4+  Zr27  1  0.79760000  0.62500000  0.36770000  1.0
  Cl-  Cl1  1  0.37250000  0.20740000  0.49040000  1.0
  Cl-  Cl1  1  0.37250000  0.70740000  0.49040000  1.0
  Cl-  Cl1  1  0.87250000  0.20740000  0.49040000  1.0
  Cl-  Cl1  1  0.87250000  0.70740000  0.49040000  1.0
  Cl-  Cl1  1  0.37750000  0.04260000  0.99040000  1.0
  Cl-  Cl1  1  0.37750000  0.54260000  0.99040000  1.0
  Cl-  Cl1  1  0.87750000  0.04260000  0.99040000  1.0
  Cl-  Cl1  1  0.87750000  0.54260000  0.99040000  1.0
  Cl-  Cl1  1  0.12750000  0.45740000  0.50960000  1.0
  Cl-  Cl1  1  0.12750000  0.95740000  0.50960000  1.0
  Cl-  Cl1  1  0.62750000  0.45740000  0.50960000  1.0
  Cl-  Cl1  1  0.62750000  0.95740000  0.50960000  1.0
  Cl-  Cl1  1  0.12250000  0.29260000  0.00960000  1.0
  Cl-  Cl1  1  0.12250000  0.79260000  0.00960000  1.0
  Cl-  Cl1  1  0.62250000  0.29260000  0.00960000  1.0
  Cl-  Cl1  1  0.62250000  0.79260000  0.00960000  1.0
  Cl-  Cl1  1  0.12750000  0.29260000  0.50960000  1.0
  Cl-  Cl1  1  0.12750000  0.79260000  0.50960000  1.0
  Cl-  Cl1  1  0.62750000  0.29260000  0.50960000  1.0
  Cl-  Cl1  1  0.62750000  0.79260000  0.50960000  1.0
  Cl-  Cl1  1  0.12250000  0.45740000  0.00960000  1.0
  Cl-  Cl1  1  0.12250000  0.95740000  0.00960000  1.0
  Cl-  Cl1  1  0.62250000  0.45740000  0.00960000  1.0
  Cl-  Cl1  1  0.62250000  0.95740000  0.00960000  1.0
  Cl-  Cl1  1  0.37250000  0.04260000  0.49040000  1.0
  Cl-  Cl1  1  0.37250000  0.54260000  0.49040000  1.0
  Cl-  Cl1  1  0.87250000  0.04260000  0.49040000  1.0
  Cl-  Cl1  1  0.87250000  0.54260000  0.49040000  1.0
  Cl-  Cl1  1  0.37750000  0.20740000  0.99040000  1.0
  Cl-  Cl1  1  0.37750000  0.70740000  0.99040000  1.0
  Cl-  Cl1  1  0.87750000  0.20740000  0.99040000  1.0
  Cl-  Cl1  1  0.87750000  0.70740000  0.99040000  1.0
  Cl-  Cl2  1  0.46060000  0.45720000  0.24590000  1.0
  Cl-  Cl2  1  0.46060000  0.95720000  0.24590000  1.0
  Cl-  Cl2  1  0.96060000  0.45720000  0.24590000  1.0
  Cl-  Cl2  1  0.96060000  0.95720000  0.24590000  1.0
  Cl-  Cl2  1  0.28940000  0.29280000  0.74590000  1.0
  Cl-  Cl2  1  0.28940000  0.79280000  0.74590000  1.0
  Cl-  Cl2  1  0.78940000  0.29280000  0.74590000  1.0
  Cl-  Cl2  1  0.78940000  0.79280000  0.74590000  1.0
  Cl-  Cl2  1  0.03940000  0.20720000  0.75410000  1.0
  Cl-  Cl2  1  0.03940000  0.70720000  0.75410000  1.0
  Cl-  Cl2  1  0.53940000  0.20720000  0.75410000  1.0
  Cl-  Cl2  1  0.53940000  0.70720000  0.75410000  1.0
  Cl-  Cl2  1  0.21060000  0.04280000  0.25410000  1.0
  Cl-  Cl2  1  0.21060000  0.54280000  0.25410000  1.0
  Cl-  Cl2  1  0.71060000  0.04280000  0.25410000  1.0
  Cl-  Cl2  1  0.71060000  0.54280000  0.25410000  1.0
  Cl-  Cl2  1  0.03940000  0.04280000  0.75410000  1.0
  Cl-  Cl2  1  0.03940000  0.54280000  0.75410000  1.0
  Cl-  Cl2  1  0.53940000  0.04280000  0.75410000  1.0
  Cl-  Cl2  1  0.53940000  0.54280000  0.75410000  1.0
  Cl-  Cl2  1  0.21060000  0.20720000  0.25410000  1.0
  Cl-  Cl2  1  0.21060000  0.70720000  0.25410000  1.0
  Cl-  Cl2  1  0.71060000  0.20720000  0.25410000  1.0
  Cl-  Cl2  1  0.71060000  0.70720000  0.25410000  1.0
  Cl-  Cl2  1  0.46060000  0.29280000  0.24590000  1.0
  Cl-  Cl2  1  0.46060000  0.79280000  0.24590000  1.0
  Cl-  Cl2  1  0.96060000  0.29280000  0.24590000  1.0
  Cl-  Cl2  1  0.96060000  0.79280000  0.24590000  1.0
  Cl-  Cl2  1  0.28940000  0.45720000  0.74590000  1.0
  Cl-  Cl2  1  0.28940000  0.95720000  0.74590000  1.0
  Cl-  Cl2  1  0.78940000  0.45720000  0.74590000  1.0
  Cl-  Cl2  1  0.78940000  0.95720000  0.74590000  1.0
  Cl-  Cl3  1  0.36220000  0.37500000  0.49770000  1.0
  Cl-  Cl3  1  0.36220000  0.87500000  0.49770000  1.0
  Cl-  Cl3  1  0.86220000  0.37500000  0.49770000  1.0
  Cl-  Cl3  1  0.86220000  0.87500000  0.49770000  1.0
  Cl-  Cl3  1  0.38780000  0.37500000  0.99770000  1.0
  Cl-  Cl3  1  0.38780000  0.87500000  0.99770000  1.0
  Cl-  Cl3  1  0.88780000  0.37500000  0.99770000  1.0
  Cl-  Cl3  1  0.88780000  0.87500000  0.99770000  1.0
  Cl-  Cl3  1  0.13780000  0.12500000  0.50230000  1.0
  Cl-  Cl3  1  0.13780000  0.62500000  0.50230000  1.0
  Cl-  Cl3  1  0.63780000  0.12500000  0.50230000  1.0
  Cl-  Cl3  1  0.63780000  0.62500000  0.50230000  1.0
  Cl-  Cl3  1  0.11220000  0.12500000  0.00230000  1.0
  Cl-  Cl3  1  0.11220000  0.62500000  0.00230000  1.0
  Cl-  Cl3  1  0.61220000  0.12500000  0.00230000  1.0
  Cl-  Cl3  1  0.61220000  0.62500000  0.00230000  1.0
  Cl-  Cl4  1  0.04175000  0.37500000  0.74850000  1.0
  Cl-  Cl4  1  0.04175000  0.87500000  0.74850000  1.0
  Cl-  Cl4  1  0.54175000  0.37500000  0.74850000  1.0
  Cl-  Cl4  1  0.54175000  0.87500000  0.74850000  1.0
  Cl-  Cl4  1  0.20825000  0.37500000  0.24850000  1.0
  Cl-  Cl4  1  0.20825000  0.87500000  0.24850000  1.0
  Cl-  Cl4  1  0.70825000  0.37500000  0.24850000  1.0
  Cl-  Cl4  1  0.70825000  0.87500000  0.24850000  1.0
  Cl-  Cl4  1  0.45825000  0.12500000  0.25150000  1.0
  Cl-  Cl4  1  0.45825000  0.62500000  0.25150000  1.0
  Cl-  Cl4  1  0.95825000  0.12500000  0.25150000  1.0
  Cl-  Cl4  1  0.95825000  0.62500000  0.25150000  1.0
  Cl-  Cl4  1  0.29175000  0.12500000  0.75150000  1.0
  Cl-  Cl4  1  0.29175000  0.62500000  0.75150000  1.0
  Cl-  Cl4  1  0.79175000  0.12500000  0.75150000  1.0
  Cl-  Cl4  1  0.79175000  0.62500000  0.75150000  1.0
