# generated using pymatgen
data_Li37Si7P3O40
_symmetry_space_group_name_H-M   'P 1'
_cell_length_a   25.57850000
_cell_length_b   10.61760000
_cell_length_c   6.11620000
_cell_angle_alpha   90.00000000
_cell_angle_beta   90.00000000
_cell_angle_gamma   90.40000000
_symmetry_Int_Tables_number   1
_chemical_formula_structural   Li37Si7P3O40
_chemical_formula_sum   'Li74 Si14 P6 O80'
_cell_volume   1661.01107207
_cell_formula_units_Z   2
loop_
 _symmetry_equiv_pos_site_id
 _symmetry_equiv_pos_as_xyz
  1  'x, y, z'
loop_
 _atom_type_symbol
 _atom_type_oxidation_number
  Li+  1.0
  Si4+  4.0
  P5+  5.0
  O2-  -2.0
loop_
 _atom_site_type_symbol
 _atom_site_label
 _atom_site_symmetry_multiplicity
 _atom_site_fract_x
 _atom_site_fract_y
 _atom_site_fract_z
 _atom_site_occupancy
  Li+  Li0  1  0.19380000  0.00600000  0.75000000  1.0
  Li+  Li1  1  0.59380000  0.50600000  0.75000000  1.0
  Li+  Li2  1  0.00620000  0.49400000  0.25000000  1.0
  Li+  Li3  1  0.80620000  0.49400000  0.25000000  1.0
  Li+  Li4  1  0.12080000  0.64850000  0.75000000  1.0
  Li+  Li5  1  0.27920000  0.35150000  0.25000000  1.0
  Li+  Li6  1  0.47920000  0.85150000  0.25000000  1.0
  Li+  Li7  1  0.67920000  0.85150000  0.25000000  1.0
  Li+  Li8  1  0.38680000  0.77050000  0.55100000  1.0
  Li+  Li9  1  0.98680000  0.27050000  0.55100000  1.0
  Li+  Li10  1  0.01320000  0.72950000  0.05100000  1.0
  Li+  Li11  1  0.41320000  0.22950000  0.05100000  1.0
  Li+  Li12  1  0.61320000  0.22950000  0.05100000  1.0
  Li+  Li13  1  0.61320000  0.72950000  0.05100000  1.0
  Li+  Li14  1  0.81320000  0.22950000  0.05100000  1.0
  Li+  Li15  1  0.41320000  0.22950000  0.44900000  1.0
  Li+  Li16  1  0.81320000  0.22950000  0.44900000  1.0
  Li+  Li17  1  0.78680000  0.27050000  0.94900000  1.0
  Li+  Li18  1  0.98680000  0.27050000  0.94900000  1.0
  Li+  Li19  1  0.32040000  0.92600000  0.46300000  1.0
  Li+  Li20  1  0.52040000  0.42600000  0.46300000  1.0
  Li+  Li21  1  0.52040000  0.92600000  0.46300000  1.0
  Li+  Li22  1  0.72040000  0.92600000  0.46300000  1.0
  Li+  Li23  1  0.07960000  0.57400000  0.96300000  1.0
  Li+  Li24  1  0.47960000  0.07400000  0.96300000  1.0
  Li+  Li25  1  0.47960000  0.57400000  0.96300000  1.0
  Li+  Li26  1  0.67960000  0.07400000  0.96300000  1.0
  Li+  Li27  1  0.67960000  0.57400000  0.96300000  1.0
  Li+  Li28  1  0.87960000  0.07400000  0.96300000  1.0
  Li+  Li29  1  0.07960000  0.07400000  0.53700000  1.0
  Li+  Li30  1  0.27960000  0.57400000  0.53700000  1.0
  Li+  Li31  1  0.47960000  0.57400000  0.53700000  1.0
  Li+  Li32  1  0.12040000  0.42600000  0.03700000  1.0
  Li+  Li33  1  0.12040000  0.92600000  0.03700000  1.0
  Li+  Li34  1  0.32040000  0.42600000  0.03700000  1.0
  Li+  Li35  1  0.72040000  0.92600000  0.03700000  1.0
  Li+  Li36  1  0.92040000  0.42600000  0.03700000  1.0
  Li+  Li37  1  0.16420000  0.18100000  0.75000000  1.0
  Li+  Li38  1  0.16420000  0.68100000  0.75000000  1.0
  Li+  Li39  1  0.36420000  0.18100000  0.75000000  1.0
  Li+  Li40  1  0.56420000  0.18100000  0.75000000  1.0
  Li+  Li41  1  0.56420000  0.68100000  0.75000000  1.0
  Li+  Li42  1  0.76420000  0.68100000  0.75000000  1.0
  Li+  Li43  1  0.03580000  0.31900000  0.25000000  1.0
  Li+  Li44  1  0.23580000  0.81900000  0.25000000  1.0
  Li+  Li45  1  0.43580000  0.81900000  0.25000000  1.0
  Li+  Li46  1  0.63580000  0.81900000  0.25000000  1.0
  Li+  Li47  1  0.83580000  0.81900000  0.25000000  1.0
  Li+  Li48  1  0.16520000  0.41250000  0.50300000  1.0
  Li+  Li49  1  0.36520000  0.41250000  0.50300000  1.0
  Li+  Li50  1  0.56520000  0.91250000  0.50300000  1.0
  Li+  Li51  1  0.76520000  0.41250000  0.50300000  1.0
  Li+  Li52  1  0.76520000  0.91250000  0.50300000  1.0
  Li+  Li53  1  0.96520000  0.41250000  0.50300000  1.0
  Li+  Li54  1  0.96520000  0.91250000  0.50300000  1.0
  Li+  Li55  1  0.03480000  0.08750000  0.00300000  1.0
  Li+  Li56  1  0.03480000  0.58750000  0.00300000  1.0
  Li+  Li57  1  0.23480000  0.08750000  0.00300000  1.0
  Li+  Li58  1  0.43480000  0.08750000  0.00300000  1.0
  Li+  Li59  1  0.43480000  0.58750000  0.00300000  1.0
  Li+  Li60  1  0.03480000  0.08750000  0.49700000  1.0
  Li+  Li61  1  0.03480000  0.58750000  0.49700000  1.0
  Li+  Li62  1  0.23480000  0.08750000  0.49700000  1.0
  Li+  Li63  1  0.43480000  0.08750000  0.49700000  1.0
  Li+  Li64  1  0.63480000  0.58750000  0.49700000  1.0
  Li+  Li65  1  0.83480000  0.08750000  0.49700000  1.0
  Li+  Li66  1  0.83480000  0.58750000  0.49700000  1.0
  Li+  Li67  1  0.16520000  0.41250000  0.99700000  1.0
  Li+  Li68  1  0.16520000  0.91250000  0.99700000  1.0
  Li+  Li69  1  0.36520000  0.41250000  0.99700000  1.0
  Li+  Li70  1  0.56520000  0.41250000  0.99700000  1.0
  Li+  Li71  1  0.56520000  0.91250000  0.99700000  1.0
  Li+  Li72  1  0.76520000  0.41250000  0.99700000  1.0
  Li+  Li73  1  0.96520000  0.91250000  0.99700000  1.0
  Si4+  Si74  1  0.06608000  0.33740000  0.75000000  1.0
  Si4+  Si75  1  0.06608000  0.83740000  0.75000000  1.0
  Si4+  Si76  1  0.26608000  0.33740000  0.75000000  1.0
  Si4+  Si77  1  0.26608000  0.83740000  0.75000000  1.0
  Si4+  Si78  1  0.46608000  0.33740000  0.75000000  1.0
  Si4+  Si79  1  0.46608000  0.83740000  0.75000000  1.0
  Si4+  Si80  1  0.66608000  0.33740000  0.75000000  1.0
  Si4+  Si81  1  0.66608000  0.83740000  0.75000000  1.0
  Si4+  Si82  1  0.86608000  0.83740000  0.75000000  1.0
  Si4+  Si83  1  0.13392000  0.16260000  0.25000000  1.0
  Si4+  Si84  1  0.53392000  0.66260000  0.25000000  1.0
  Si4+  Si85  1  0.73392000  0.16260000  0.25000000  1.0
  Si4+  Si86  1  0.73392000  0.66260000  0.25000000  1.0
  Si4+  Si87  1  0.93392000  0.16260000  0.25000000  1.0
  P5+  P88  1  0.86608000  0.33740000  0.75000000  1.0
  P5+  P89  1  0.13392000  0.66260000  0.25000000  1.0
  P5+  P90  1  0.33392000  0.16260000  0.25000000  1.0
  P5+  P91  1  0.33392000  0.66260000  0.25000000  1.0
  P5+  P92  1  0.53392000  0.16260000  0.25000000  1.0
  P5+  P93  1  0.93392000  0.66260000  0.25000000  1.0
  O2-  O1  1  0.04474000  0.40685000  0.53340000  1.0
  O2-  O1  1  0.04474000  0.90685000  0.53340000  1.0
  O2-  O1  1  0.24474000  0.40685000  0.53340000  1.0
  O2-  O1  1  0.24474000  0.90685000  0.53340000  1.0
  O2-  O1  1  0.44474000  0.40685000  0.53340000  1.0
  O2-  O1  1  0.44474000  0.90685000  0.53340000  1.0
  O2-  O1  1  0.64474000  0.40685000  0.53340000  1.0
  O2-  O1  1  0.64474000  0.90685000  0.53340000  1.0
  O2-  O1  1  0.84474000  0.40685000  0.53340000  1.0
  O2-  O1  1  0.84474000  0.90685000  0.53340000  1.0
  O2-  O1  1  0.15526000  0.09315000  0.03340000  1.0
  O2-  O1  1  0.15526000  0.59315000  0.03340000  1.0
  O2-  O1  1  0.35526000  0.09315000  0.03340000  1.0
  O2-  O1  1  0.35526000  0.59315000  0.03340000  1.0
  O2-  O1  1  0.55526000  0.09315000  0.03340000  1.0
  O2-  O1  1  0.55526000  0.59315000  0.03340000  1.0
  O2-  O1  1  0.75526000  0.09315000  0.03340000  1.0
  O2-  O1  1  0.75526000  0.59315000  0.03340000  1.0
  O2-  O1  1  0.95526000  0.09315000  0.03340000  1.0
  O2-  O1  1  0.95526000  0.59315000  0.03340000  1.0
  O2-  O1  1  0.15526000  0.09315000  0.46660000  1.0
  O2-  O1  1  0.15526000  0.59315000  0.46660000  1.0
  O2-  O1  1  0.35526000  0.09315000  0.46660000  1.0
  O2-  O1  1  0.35526000  0.59315000  0.46660000  1.0
  O2-  O1  1  0.55526000  0.09315000  0.46660000  1.0
  O2-  O1  1  0.55526000  0.59315000  0.46660000  1.0
  O2-  O1  1  0.75526000  0.09315000  0.46660000  1.0
  O2-  O1  1  0.75526000  0.59315000  0.46660000  1.0
  O2-  O1  1  0.95526000  0.09315000  0.46660000  1.0
  O2-  O1  1  0.95526000  0.59315000  0.46660000  1.0
  O2-  O1  1  0.04474000  0.40685000  0.96660000  1.0
  O2-  O1  1  0.04474000  0.90685000  0.96660000  1.0
  O2-  O1  1  0.24474000  0.40685000  0.96660000  1.0
  O2-  O1  1  0.24474000  0.90685000  0.96660000  1.0
  O2-  O1  1  0.44474000  0.40685000  0.96660000  1.0
  O2-  O1  1  0.44474000  0.90685000  0.96660000  1.0
  O2-  O1  1  0.64474000  0.40685000  0.96660000  1.0
  O2-  O1  1  0.64474000  0.90685000  0.96660000  1.0
  O2-  O1  1  0.84474000  0.40685000  0.96660000  1.0
  O2-  O1  1  0.84474000  0.90685000  0.96660000  1.0
  O2-  O2  1  0.12938000  0.34190000  0.75000000  1.0
  O2-  O2  1  0.12938000  0.84190000  0.75000000  1.0
  O2-  O2  1  0.32938000  0.34190000  0.75000000  1.0
  O2-  O2  1  0.32938000  0.84190000  0.75000000  1.0
  O2-  O2  1  0.52938000  0.34190000  0.75000000  1.0
  O2-  O2  1  0.52938000  0.84190000  0.75000000  1.0
  O2-  O2  1  0.72938000  0.34190000  0.75000000  1.0
  O2-  O2  1  0.72938000  0.84190000  0.75000000  1.0
  O2-  O2  1  0.92938000  0.34190000  0.75000000  1.0
  O2-  O2  1  0.92938000  0.84190000  0.75000000  1.0
  O2-  O2  1  0.07062000  0.15810000  0.25000000  1.0
  O2-  O2  1  0.07062000  0.65810000  0.25000000  1.0
  O2-  O2  1  0.27062000  0.15810000  0.25000000  1.0
  O2-  O2  1  0.27062000  0.65810000  0.25000000  1.0
  O2-  O2  1  0.47062000  0.15810000  0.25000000  1.0
  O2-  O2  1  0.47062000  0.65810000  0.25000000  1.0
  O2-  O2  1  0.67062000  0.15810000  0.25000000  1.0
  O2-  O2  1  0.67062000  0.65810000  0.25000000  1.0
  O2-  O2  1  0.87062000  0.15810000  0.25000000  1.0
  O2-  O2  1  0.87062000  0.65810000  0.25000000  1.0
  O2-  O3  1  0.04590000  0.19285000  0.75000000  1.0
  O2-  O3  1  0.04590000  0.69285000  0.75000000  1.0
  O2-  O3  1  0.24590000  0.19285000  0.75000000  1.0
  O2-  O3  1  0.24590000  0.69285000  0.75000000  1.0
  O2-  O3  1  0.44590000  0.19285000  0.75000000  1.0
  O2-  O3  1  0.44590000  0.69285000  0.75000000  1.0
  O2-  O3  1  0.64590000  0.19285000  0.75000000  1.0
  O2-  O3  1  0.64590000  0.69285000  0.75000000  1.0
  O2-  O3  1  0.84590000  0.19285000  0.75000000  1.0
  O2-  O3  1  0.84590000  0.69285000  0.75000000  1.0
  O2-  O3  1  0.15410000  0.30715000  0.25000000  1.0
  O2-  O3  1  0.15410000  0.80715000  0.25000000  1.0
  O2-  O3  1  0.35410000  0.30715000  0.25000000  1.0
  O2-  O3  1  0.35410000  0.80715000  0.25000000  1.0
  O2-  O3  1  0.55410000  0.30715000  0.25000000  1.0
  O2-  O3  1  0.55410000  0.80715000  0.25000000  1.0
  O2-  O3  1  0.75410000  0.30715000  0.25000000  1.0
  O2-  O3  1  0.75410000  0.80715000  0.25000000  1.0
  O2-  O3  1  0.95410000  0.30715000  0.25000000  1.0
  O2-  O3  1  0.95410000  0.80715000  0.25000000  1.0
