# generated using pymatgen
data_Li6PClO5
_symmetry_space_group_name_H-M   'P 1'
_cell_length_a   11.66692546
_cell_length_b   11.66692546
_cell_length_c   11.66692546
_cell_angle_alpha   120.00000000
_cell_angle_beta   120.00000000
_cell_angle_gamma   60.00000000
_symmetry_Int_Tables_number   1
_chemical_formula_structural   Li6PClO5
_chemical_formula_sum   'Li48 P8 Cl8 O40'
_cell_volume   1122.93410380
_cell_formula_units_Z   8
loop_
 _symmetry_equiv_pos_site_id
 _symmetry_equiv_pos_as_xyz
  1  'x, y, z'
loop_
 _atom_type_symbol
 _atom_type_oxidation_number
  Li+  1.0
  P5+  5.0
  Cl-  -1.0
  O2-  -2.0
loop_
 _atom_site_type_symbol
 _atom_site_label
 _atom_site_symmetry_multiplicity
 _atom_site_fract_x
 _atom_site_fract_y
 _atom_site_fract_z
 _atom_site_occupancy
  Li+  Li0  1  0.75770000  0.65896667  0.00770000  1.0
  Li+  Li1  1  0.75770000  0.65896667  0.50770000  1.0
  Li+  Li2  1  0.25770000  0.65896667  0.00770000  1.0
  Li+  Li3  1  0.25770000  0.65896667  0.50770000  1.0
  Li+  Li4  1  0.75770000  0.15896667  0.00770000  1.0
  Li+  Li5  1  0.75770000  0.15896667  0.50770000  1.0
  Li+  Li6  1  0.25770000  0.15896667  0.00770000  1.0
  Li+  Li7  1  0.25770000  0.15896667  0.50770000  1.0
  Li+  Li8  1  0.99230000  0.65896667  0.24230000  1.0
  Li+  Li9  1  0.99230000  0.65896667  0.74230000  1.0
  Li+  Li10  1  0.49230000  0.65896667  0.24230000  1.0
  Li+  Li11  1  0.49230000  0.65896667  0.74230000  1.0
  Li+  Li12  1  0.99230000  0.15896667  0.24230000  1.0
  Li+  Li13  1  0.99230000  0.15896667  0.74230000  1.0
  Li+  Li14  1  0.49230000  0.15896667  0.24230000  1.0
  Li+  Li15  1  0.49230000  0.15896667  0.74230000  1.0
  Li+  Li16  1  0.75770000  0.65896667  0.24230000  1.0
  Li+  Li17  1  0.75770000  0.65896667  0.74230000  1.0
  Li+  Li18  1  0.25770000  0.65896667  0.24230000  1.0
  Li+  Li19  1  0.25770000  0.65896667  0.74230000  1.0
  Li+  Li20  1  0.75770000  0.15896667  0.24230000  1.0
  Li+  Li21  1  0.75770000  0.15896667  0.74230000  1.0
  Li+  Li22  1  0.25770000  0.15896667  0.24230000  1.0
  Li+  Li23  1  0.25770000  0.15896667  0.74230000  1.0
  Li+  Li24  1  0.99230000  0.42436667  0.24230000  1.0
  Li+  Li25  1  0.99230000  0.42436667  0.74230000  1.0
  Li+  Li26  1  0.49230000  0.42436667  0.24230000  1.0
  Li+  Li27  1  0.49230000  0.42436667  0.74230000  1.0
  Li+  Li28  1  0.99230000  0.92436667  0.24230000  1.0
  Li+  Li29  1  0.99230000  0.92436667  0.74230000  1.0
  Li+  Li30  1  0.49230000  0.92436667  0.24230000  1.0
  Li+  Li31  1  0.49230000  0.92436667  0.74230000  1.0
  Li+  Li32  1  0.99230000  0.42436667  0.00770000  1.0
  Li+  Li33  1  0.99230000  0.42436667  0.50770000  1.0
  Li+  Li34  1  0.49230000  0.42436667  0.00770000  1.0
  Li+  Li35  1  0.49230000  0.42436667  0.50770000  1.0
  Li+  Li36  1  0.99230000  0.92436667  0.00770000  1.0
  Li+  Li37  1  0.99230000  0.92436667  0.50770000  1.0
  Li+  Li38  1  0.49230000  0.92436667  0.00770000  1.0
  Li+  Li39  1  0.49230000  0.92436667  0.50770000  1.0
  Li+  Li40  1  0.75770000  0.42436667  0.00770000  1.0
  Li+  Li41  1  0.75770000  0.42436667  0.50770000  1.0
  Li+  Li42  1  0.25770000  0.42436667  0.00770000  1.0
  Li+  Li43  1  0.25770000  0.42436667  0.50770000  1.0
  Li+  Li44  1  0.75770000  0.92436667  0.00770000  1.0
  Li+  Li45  1  0.75770000  0.92436667  0.50770000  1.0
  Li+  Li46  1  0.25770000  0.92436667  0.00770000  1.0
  Li+  Li47  1  0.25770000  0.92436667  0.50770000  1.0
  P5+  P48  1  0.75000000  0.41666667  0.25000000  1.0
  P5+  P49  1  0.75000000  0.41666667  0.75000000  1.0
  P5+  P50  1  0.25000000  0.41666667  0.25000000  1.0
  P5+  P51  1  0.25000000  0.41666667  0.75000000  1.0
  P5+  P52  1  0.75000000  0.91666667  0.25000000  1.0
  P5+  P53  1  0.75000000  0.91666667  0.75000000  1.0
  P5+  P54  1  0.25000000  0.91666667  0.25000000  1.0
  P5+  P55  1  0.25000000  0.91666667  0.75000000  1.0
  Cl-  Cl56  1  0.00000000  0.66666667  0.00000000  1.0
  Cl-  Cl57  1  0.00000000  0.66666667  0.50000000  1.0
  Cl-  Cl58  1  0.50000000  0.66666667  0.00000000  1.0
  Cl-  Cl59  1  0.50000000  0.66666667  0.50000000  1.0
  Cl-  Cl60  1  0.00000000  0.16666667  0.00000000  1.0
  Cl-  Cl61  1  0.00000000  0.16666667  0.50000000  1.0
  Cl-  Cl62  1  0.50000000  0.16666667  0.00000000  1.0
  Cl-  Cl63  1  0.50000000  0.16666667  0.50000000  1.0
  O2-  O64  1  0.69585000  0.36251667  0.08755000  1.0
  O2-  O65  1  0.69585000  0.36251667  0.58755000  1.0
  O2-  O66  1  0.19585000  0.36251667  0.08755000  1.0
  O2-  O67  1  0.19585000  0.36251667  0.58755000  1.0
  O2-  O68  1  0.69585000  0.86251667  0.08755000  1.0
  O2-  O69  1  0.69585000  0.86251667  0.58755000  1.0
  O2-  O70  1  0.19585000  0.86251667  0.08755000  1.0
  O2-  O71  1  0.19585000  0.86251667  0.58755000  1.0
  O2-  O72  1  0.91245000  0.36251667  0.30415000  1.0
  O2-  O73  1  0.91245000  0.36251667  0.80415000  1.0
  O2-  O74  1  0.41245000  0.36251667  0.30415000  1.0
  O2-  O75  1  0.41245000  0.36251667  0.80415000  1.0
  O2-  O76  1  0.91245000  0.86251667  0.30415000  1.0
  O2-  O77  1  0.91245000  0.86251667  0.80415000  1.0
  O2-  O78  1  0.41245000  0.86251667  0.30415000  1.0
  O2-  O79  1  0.41245000  0.86251667  0.80415000  1.0
  O2-  O80  1  0.69585000  0.36251667  0.30415000  1.0
  O2-  O81  1  0.69585000  0.36251667  0.80415000  1.0
  O2-  O82  1  0.19585000  0.36251667  0.30415000  1.0
  O2-  O83  1  0.19585000  0.36251667  0.80415000  1.0
  O2-  O84  1  0.69585000  0.86251667  0.30415000  1.0
  O2-  O85  1  0.69585000  0.86251667  0.80415000  1.0
  O2-  O86  1  0.19585000  0.86251667  0.30415000  1.0
  O2-  O87  1  0.19585000  0.86251667  0.80415000  1.0
  O2-  O88  1  0.69585000  0.57911667  0.30415000  1.0
  O2-  O89  1  0.69585000  0.57911667  0.80415000  1.0
  O2-  O90  1  0.19585000  0.57911667  0.30415000  1.0
  O2-  O91  1  0.19585000  0.57911667  0.80415000  1.0
  O2-  O92  1  0.69585000  0.07911667  0.30415000  1.0
  O2-  O93  1  0.69585000  0.07911667  0.80415000  1.0
  O2-  O94  1  0.19585000  0.07911667  0.30415000  1.0
  O2-  O95  1  0.19585000  0.07911667  0.80415000  1.0
  O2-  O96  1  0.87500000  0.54166667  0.12500000  1.0
  O2-  O97  1  0.87500000  0.54166667  0.62500000  1.0
  O2-  O98  1  0.37500000  0.54166667  0.12500000  1.0
  O2-  O99  1  0.37500000  0.54166667  0.62500000  1.0
  O2-  O100  1  0.87500000  0.04166667  0.12500000  1.0
  O2-  O101  1  0.87500000  0.04166667  0.62500000  1.0
  O2-  O102  1  0.37500000  0.04166667  0.12500000  1.0
  O2-  O103  1  0.37500000  0.04166667  0.62500000  1.0
