# generated using pymatgen
data_Li7SbO6
_symmetry_space_group_name_H-M   'P 1'
_cell_length_a   10.77000000
_cell_length_b   10.86140000
_cell_length_c   11.78320000
_cell_angle_alpha   117.22100000
_cell_angle_beta   116.74800000
_cell_angle_gamma   60.37000000
_symmetry_Int_Tables_number   1
_chemical_formula_structural   Li7SbO6
_chemical_formula_sum   'Li56 Sb8 O48'
_cell_volume   1019.74816250
_cell_formula_units_Z   8
loop_
 _symmetry_equiv_pos_site_id
 _symmetry_equiv_pos_as_xyz
  1  'x, y, z'
loop_
 _atom_type_symbol
 _atom_type_oxidation_number
  Li+  1.0
  Sb5+  5.0
  O2-  -2.0
loop_
 _atom_site_type_symbol
 _atom_site_label
 _atom_site_symmetry_multiplicity
 _atom_site_fract_x
 _atom_site_fract_y
 _atom_site_fract_z
 _atom_site_occupancy
  Li+  Li0  1  0.24715000  0.43925000  0.30650000  1.0
  Li+  Li1  1  0.24715000  0.43925000  0.80650000  1.0
  Li+  Li2  1  0.24715000  0.93925000  0.30650000  1.0
  Li+  Li3  1  0.24715000  0.93925000  0.80650000  1.0
  Li+  Li4  1  0.74715000  0.43925000  0.30650000  1.0
  Li+  Li5  1  0.74715000  0.43925000  0.80650000  1.0
  Li+  Li6  1  0.74715000  0.93925000  0.30650000  1.0
  Li+  Li7  1  0.74715000  0.93925000  0.80650000  1.0
  Li+  Li8  1  0.25285000  0.06075000  0.19350000  1.0
  Li+  Li9  1  0.25285000  0.06075000  0.69350000  1.0
  Li+  Li10  1  0.25285000  0.56075000  0.19350000  1.0
  Li+  Li11  1  0.25285000  0.56075000  0.69350000  1.0
  Li+  Li12  1  0.75285000  0.06075000  0.19350000  1.0
  Li+  Li13  1  0.75285000  0.06075000  0.69350000  1.0
  Li+  Li14  1  0.75285000  0.56075000  0.19350000  1.0
  Li+  Li15  1  0.75285000  0.56075000  0.69350000  1.0
  Li+  Li16  1  0.32675000  0.32590000  0.48375000  1.0
  Li+  Li17  1  0.32675000  0.82590000  0.48375000  1.0
  Li+  Li18  1  0.32675000  0.82590000  0.98375000  1.0
  Li+  Li19  1  0.82675000  0.32590000  0.48375000  1.0
  Li+  Li20  1  0.82675000  0.32590000  0.98375000  1.0
  Li+  Li21  1  0.82675000  0.82590000  0.48375000  1.0
  Li+  Li22  1  0.82675000  0.82590000  0.98375000  1.0
  Li+  Li23  1  0.17325000  0.17410000  0.01625000  1.0
  Li+  Li24  1  0.17325000  0.17410000  0.51625000  1.0
  Li+  Li25  1  0.17325000  0.67410000  0.01625000  1.0
  Li+  Li26  1  0.17325000  0.67410000  0.51625000  1.0
  Li+  Li27  1  0.67325000  0.17410000  0.01625000  1.0
  Li+  Li28  1  0.67325000  0.17410000  0.51625000  1.0
  Li+  Li29  1  0.67325000  0.67410000  0.01625000  1.0
  Li+  Li30  1  0.67325000  0.67410000  0.51625000  1.0
  Li+  Li31  1  0.04960000  0.37870000  0.18695000  1.0
  Li+  Li32  1  0.04960000  0.37870000  0.68695000  1.0
  Li+  Li33  1  0.04960000  0.87870000  0.18695000  1.0
  Li+  Li34  1  0.04960000  0.87870000  0.68695000  1.0
  Li+  Li35  1  0.54960000  0.37870000  0.68695000  1.0
  Li+  Li36  1  0.54960000  0.87870000  0.68695000  1.0
  Li+  Li37  1  0.45040000  0.12130000  0.31305000  1.0
  Li+  Li38  1  0.45040000  0.12130000  0.81305000  1.0
  Li+  Li39  1  0.45040000  0.62130000  0.31305000  1.0
  Li+  Li40  1  0.45040000  0.62130000  0.81305000  1.0
  Li+  Li41  1  0.95040000  0.12130000  0.31305000  1.0
  Li+  Li42  1  0.95040000  0.62130000  0.31305000  1.0
  Li+  Li43  1  0.95040000  0.62130000  0.81305000  1.0
  Li+  Li44  1  0.38545000  0.24450000  0.17865000  1.0
  Li+  Li45  1  0.38545000  0.74450000  0.17865000  1.0
  Li+  Li46  1  0.38545000  0.74450000  0.67865000  1.0
  Li+  Li47  1  0.88545000  0.24450000  0.17865000  1.0
  Li+  Li48  1  0.88545000  0.24450000  0.67865000  1.0
  Li+  Li49  1  0.88545000  0.74450000  0.17865000  1.0
  Li+  Li50  1  0.88545000  0.74450000  0.67865000  1.0
  Li+  Li51  1  0.11455000  0.25550000  0.32135000  1.0
  Li+  Li52  1  0.11455000  0.25550000  0.82135000  1.0
  Li+  Li53  1  0.61455000  0.25550000  0.32135000  1.0
  Li+  Li54  1  0.61455000  0.25550000  0.82135000  1.0
  Li+  Li55  1  0.61455000  0.75550000  0.32135000  1.0
  Sb5+  Sb1  1  0.00000000  0.00000000  0.00000000  1.0
  Sb5+  Sb1  1  0.00000000  0.00000000  0.50000000  1.0
  Sb5+  Sb1  1  0.00000000  0.50000000  0.00000000  1.0
  Sb5+  Sb1  1  0.00000000  0.50000000  0.50000000  1.0
  Sb5+  Sb1  1  0.50000000  0.00000000  0.00000000  1.0
  Sb5+  Sb1  1  0.50000000  0.00000000  0.50000000  1.0
  Sb5+  Sb1  1  0.50000000  0.50000000  0.00000000  1.0
  Sb5+  Sb1  1  0.50000000  0.50000000  0.50000000  1.0
  O2-  O1  1  0.31120000  0.11460000  0.38285000  1.0
  O2-  O1  1  0.31120000  0.11460000  0.88285000  1.0
  O2-  O1  1  0.31120000  0.61460000  0.38285000  1.0
  O2-  O1  1  0.31120000  0.61460000  0.88285000  1.0
  O2-  O1  1  0.81120000  0.11460000  0.38285000  1.0
  O2-  O1  1  0.81120000  0.11460000  0.88285000  1.0
  O2-  O1  1  0.81120000  0.61460000  0.38285000  1.0
  O2-  O1  1  0.81120000  0.61460000  0.88285000  1.0
  O2-  O1  1  0.18880000  0.38540000  0.11715000  1.0
  O2-  O1  1  0.18880000  0.38540000  0.61715000  1.0
  O2-  O1  1  0.18880000  0.88540000  0.11715000  1.0
  O2-  O1  1  0.18880000  0.88540000  0.61715000  1.0
  O2-  O1  1  0.68880000  0.38540000  0.11715000  1.0
  O2-  O1  1  0.68880000  0.38540000  0.61715000  1.0
  O2-  O1  1  0.68880000  0.88540000  0.11715000  1.0
  O2-  O1  1  0.68880000  0.88540000  0.61715000  1.0
  O2-  O2  1  0.45420000  0.31425000  0.38495000  1.0
  O2-  O2  1  0.45420000  0.31425000  0.88495000  1.0
  O2-  O2  1  0.45420000  0.81425000  0.38495000  1.0
  O2-  O2  1  0.45420000  0.81425000  0.88495000  1.0
  O2-  O2  1  0.95420000  0.31425000  0.38495000  1.0
  O2-  O2  1  0.95420000  0.31425000  0.88495000  1.0
  O2-  O2  1  0.95420000  0.81425000  0.38495000  1.0
  O2-  O2  1  0.95420000  0.81425000  0.88495000  1.0
  O2-  O2  1  0.04580000  0.18575000  0.11505000  1.0
  O2-  O2  1  0.04580000  0.18575000  0.61505000  1.0
  O2-  O2  1  0.04580000  0.68575000  0.11505000  1.0
  O2-  O2  1  0.04580000  0.68575000  0.61505000  1.0
  O2-  O2  1  0.54580000  0.18575000  0.11505000  1.0
  O2-  O2  1  0.54580000  0.18575000  0.61505000  1.0
  O2-  O2  1  0.54580000  0.68575000  0.11505000  1.0
  O2-  O2  1  0.54580000  0.68575000  0.61505000  1.0
  O2-  O3  1  0.38980000  0.04425000  0.11825000  1.0
  O2-  O3  1  0.38980000  0.04425000  0.61825000  1.0
  O2-  O3  1  0.38980000  0.54425000  0.11825000  1.0
  O2-  O3  1  0.38980000  0.54425000  0.61825000  1.0
  O2-  O3  1  0.88980000  0.04425000  0.11825000  1.0
  O2-  O3  1  0.88980000  0.04425000  0.61825000  1.0
  O2-  O3  1  0.88980000  0.54425000  0.11825000  1.0
  O2-  O3  1  0.88980000  0.54425000  0.61825000  1.0
  O2-  O3  1  0.11020000  0.45575000  0.38175000  1.0
  O2-  O3  1  0.11020000  0.45575000  0.88175000  1.0
  O2-  O3  1  0.11020000  0.95575000  0.38175000  1.0
  O2-  O3  1  0.11020000  0.95575000  0.88175000  1.0
  O2-  O3  1  0.61020000  0.45575000  0.38175000  1.0
  O2-  O3  1  0.61020000  0.45575000  0.88175000  1.0
  O2-  O3  1  0.61020000  0.95575000  0.38175000  1.0
  O2-  O3  1  0.61020000  0.95575000  0.88175000  1.0
