# generated using pymatgen
data_Li59P10Se49Br11
_symmetry_space_group_name_H-M   'P 1'
_cell_length_a   36.65217290
_cell_length_b   14.66086916
_cell_length_c   7.33043458
_cell_angle_alpha   60.00000000
_cell_angle_beta   120.00000000
_cell_angle_gamma   120.00000000
_symmetry_Int_Tables_number   1
_chemical_formula_structural   Li59P10Se49Br11
_chemical_formula_sum   'Li59 P10 Se49 Br11'
_cell_volume   2785.31404414
_cell_formula_units_Z   1
loop_
 _symmetry_equiv_pos_site_id
 _symmetry_equiv_pos_as_xyz
  1  'x, y, z'
loop_
 _atom_type_symbol
 _atom_type_oxidation_number
  Li+  1.0
  P5+  5.0
  Se2-  -2.0
  Br-  -1.0
loop_
 _atom_site_type_symbol
 _atom_site_label
 _atom_site_symmetry_multiplicity
 _atom_site_fract_x
 _atom_site_fract_y
 _atom_site_fract_z
 _atom_site_occupancy
  Li+  Li0  1  0.29300000  0.57750000  0.90500000  1.0
  Li+  Li1  1  0.29300000  0.07750000  0.90500000  1.0
  Li+  Li2  1  0.06086000  0.18185000  0.72030000  1.0
  Li+  Li3  1  0.26086000  0.68185000  0.72030000  1.0
  Li+  Li4  1  0.80594000  0.84785000  0.11370000  1.0
  Li+  Li5  1  0.52726000  0.48515000  0.72030000  1.0
  Li+  Li6  1  0.72726000  0.48515000  0.72030000  1.0
  Li+  Li7  1  0.12726000  0.84785000  0.72030000  1.0
  Li+  Li8  1  0.32726000  0.34785000  0.72030000  1.0
  Li+  Li9  1  0.52726000  0.84785000  0.72030000  1.0
  Li+  Li10  1  0.72726000  0.34785000  0.72030000  1.0
  Li+  Li11  1  0.60594000  0.18185000  0.72030000  1.0
  Li+  Li12  1  0.20594000  0.84785000  0.72030000  1.0
  Li+  Li13  1  0.20594000  0.34785000  0.72030000  1.0
  Li+  Li14  1  0.40594000  0.84785000  0.72030000  1.0
  Li+  Li15  1  0.60594000  0.84785000  0.72030000  1.0
  Li+  Li16  1  0.80594000  0.34785000  0.72030000  1.0
  Li+  Li17  1  0.40338430  0.18448196  0.44856131  1.0
  Li+  Li18  1  0.00594000  0.98515000  0.44570000  1.0
  Li+  Li19  1  0.00594000  0.48515000  0.44570000  1.0
  Li+  Li20  1  0.20829288  0.48339502  0.44730971  1.0
  Li+  Li21  1  0.60594000  0.48515000  0.44570000  1.0
  Li+  Li22  1  0.06086000  0.48515000  0.72030000  1.0
  Li+  Li23  1  0.00594000  0.48515000  0.11370000  1.0
  Li+  Li24  1  0.60594000  0.48515000  0.11370000  1.0
  Li+  Li25  1  0.52726000  0.48515000  0.44570000  1.0
  Li+  Li26  1  0.64708000  0.06770000  0.51460000  1.0
  Li+  Li27  1  0.84817470  0.06977347  0.51651752  1.0
  Li+  Li28  1  0.33473882  0.37620294  0.88773280  1.0
  Li+  Li29  1  0.52780812  0.88182720  0.88571227  1.0
  Li+  Li30  1  0.93292000  0.88230000  0.88540000  1.0
  Li+  Li31  1  0.17370357  0.88196128  0.08818251  1.0
  Li+  Li32  1  0.37292000  0.88230000  0.08540000  1.0
  Li+  Li33  1  0.97292000  0.88230000  0.08540000  1.0
  Li+  Li34  1  0.33773965  0.57099994  0.51402788  1.0
  Li+  Li35  1  0.33292000  0.06770000  0.51460000  1.0
  Li+  Li36  1  0.13292000  0.38230000  0.51460000  1.0
  Li+  Li37  1  0.93532857  0.38161216  0.51594657  1.0
  Li+  Li38  1  0.64418707  0.56383285  0.08463401  1.0
  Li+  Li39  1  0.84708000  0.06770000  0.08540000  1.0
  Li+  Li40  1  0.04691377  0.88266003  0.08817670  1.0
  Li+  Li41  1  0.64708000  0.88230000  0.08540000  1.0
  Li+  Li42  1  0.84504968  0.88362253  0.08377126  1.0
  Li+  Li43  1  0.17292000  0.66770000  0.51460000  1.0
  Li+  Li44  1  0.77870182  0.67083824  0.51761449  1.0
  Li+  Li45  1  0.77292000  0.16770000  0.51460000  1.0
  Li+  Li46  1  0.97292000  0.66770000  0.51460000  1.0
  Li+  Li47  1  0.44638957  0.66579088  0.88351143  1.0
  Li+  Li48  1  0.84868456  0.17223253  0.88305745  1.0
  Li+  Li49  1  0.17292000  0.88230000  0.51460000  1.0
  Li+  Li50  1  0.04708000  0.38230000  0.88540000  1.0
  Li+  Li51  1  0.45060126  0.88235445  0.87806038  1.0
  Li+  Li52  1  0.44708000  0.38230000  0.88540000  1.0
  Li+  Li53  1  0.84807469  0.88430435  0.88361017  1.0
  Li+  Li54  1  0.84708000  0.38230000  0.88540000  1.0
  Li+  Li55  1  0.04708000  0.66770000  0.51460000  1.0
  Li+  Li56  1  0.04708000  0.16770000  0.51460000  1.0
  Li+  Li57  1  0.24708000  0.16770000  0.51460000  1.0
  Li+  Li58  1  0.64708000  0.66770000  0.51460000  1.0
  P5+  P59  1  0.10000000  0.75000000  0.25000000  1.0
  P5+  P60  1  0.10000000  0.25000000  0.25000000  1.0
  P5+  P61  1  0.30000000  0.75000000  0.25000000  1.0
  P5+  P62  1  0.30000000  0.25000000  0.25000000  1.0
  P5+  P63  1  0.50000000  0.75000000  0.25000000  1.0
  P5+  P64  1  0.50000000  0.25000000  0.25000000  1.0
  P5+  P65  1  0.70112838  0.74914732  0.25045199  1.0
  P5+  P66  1  0.70088968  0.24690799  0.24741827  1.0
  P5+  P67  1  0.90000000  0.75000000  0.25000000  1.0
  P5+  P68  1  0.90000000  0.25000000  0.25000000  1.0
  Se2-  Se69  1  0.12484000  0.68790000  0.62260000  1.0
  Se2-  Se70  1  0.12484000  0.18790000  0.62260000  1.0
  Se2-  Se71  1  0.32484000  0.68790000  0.62260000  1.0
  Se2-  Se72  1  0.32484000  0.18790000  0.62260000  1.0
  Se2-  Se73  1  0.52484000  0.68790000  0.62260000  1.0
  Se2-  Se74  1  0.52484000  0.18790000  0.62260000  1.0
  Se2-  Se75  1  0.72484000  0.68790000  0.62260000  1.0
  Se2-  Se76  1  0.72484000  0.18790000  0.62260000  1.0
  Se2-  Se77  1  0.92484000  0.68790000  0.62260000  1.0
  Se2-  Se78  1  0.92484000  0.18790000  0.62260000  1.0
  Se2-  Se79  1  0.12484000  0.68790000  0.12580000  1.0
  Se2-  Se80  1  0.12535055  0.18731597  0.12499305  1.0
  Se2-  Se81  1  0.32484000  0.68790000  0.12580000  1.0
  Se2-  Se82  1  0.32484000  0.18790000  0.12580000  1.0
  Se2-  Se83  1  0.52384655  0.68744967  0.12613680  1.0
  Se2-  Se84  1  0.52580061  0.18335877  0.12271590  1.0
  Se2-  Se85  1  0.72630285  0.68669122  0.12757056  1.0
  Se2-  Se86  1  0.72484000  0.18790000  0.12580000  1.0
  Se2-  Se87  1  0.92484000  0.68790000  0.12580000  1.0
  Se2-  Se88  1  0.92013778  0.18908579  0.12196280  1.0
  Se2-  Se89  1  0.12484000  0.93630000  0.12580000  1.0
  Se2-  Se90  1  0.12484000  0.43630000  0.12580000  1.0
  Se2-  Se91  1  0.32484000  0.93630000  0.12580000  1.0
  Se2-  Se92  1  0.32484000  0.43630000  0.12580000  1.0
  Se2-  Se93  1  0.52455412  0.92980967  0.13013270  1.0
  Se2-  Se94  1  0.52484000  0.43630000  0.12580000  1.0
  Se2-  Se95  1  0.72484000  0.93630000  0.12580000  1.0
  Se2-  Se96  1  0.72042813  0.43234327  0.12394224  1.0
  Se2-  Se97  1  0.92484000  0.93630000  0.12580000  1.0
  Se2-  Se98  1  0.92484000  0.43630000  0.12580000  1.0
  Se2-  Se99  1  0.02548000  0.68790000  0.12580000  1.0
  Se2-  Se100  1  0.02548000  0.18790000  0.12580000  1.0
  Se2-  Se101  1  0.22548000  0.68790000  0.12580000  1.0
  Se2-  Se102  1  0.22548000  0.18790000  0.12580000  1.0
  Se2-  Se103  1  0.42936802  0.68782452  0.12603017  1.0
  Se2-  Se104  1  0.42367177  0.18535151  0.12998072  1.0
  Se2-  Se105  1  0.62548000  0.68790000  0.12580000  1.0
  Se2-  Se106  1  0.62548000  0.18790000  0.12580000  1.0
  Se2-  Se107  1  0.82548000  0.68790000  0.12580000  1.0
  Se2-  Se108  1  0.82548000  0.18790000  0.12580000  1.0
  Se2-  Se109  1  0.25000000  0.87500000  0.50000000  1.0
  Se2-  Se110  1  0.65000000  0.87500000  0.50000000  1.0
  Se2-  Se111  1  0.84696488  0.37437895  0.49851489  1.0
  Se2-  Se112  1  0.00000000  0.50000000  0.75000000  1.0
  Se2-  Se113  1  0.20000000  0.00000000  0.75000000  1.0
  Se2-  Se114  1  0.40000000  0.00000000  0.75000000  1.0
  Se2-  Se115  1  0.60000000  0.00000000  0.75000000  1.0
  Se2-  Se116  1  0.80254814  0.99726535  0.75041299  1.0
  Se2-  Se117  1  0.80000000  0.50000000  0.75000000  1.0
  Br-  Br118  1  0.05000000  0.87500000  0.50000000  1.0
  Br-  Br119  1  0.05000000  0.37500000  0.50000000  1.0
  Br-  Br120  1  0.25000000  0.37500000  0.50000000  1.0
  Br-  Br121  1  0.45000000  0.87500000  0.50000000  1.0
  Br-  Br122  1  0.44846819  0.37194322  0.50069347  1.0
  Br-  Br123  1  0.65000000  0.37500000  0.50000000  1.0
  Br-  Br124  1  0.85130539  0.87483405  0.49737910  1.0
  Br-  Br125  1  0.00000000  0.00000000  0.75000000  1.0
  Br-  Br126  1  0.20059403  0.50101520  0.75455130  1.0
  Br-  Br127  1  0.40000000  0.50000000  0.75000000  1.0
  Br-  Br128  1  0.60000000  0.50000000  0.75000000  1.0
