# generated using pymatgen
data_Li59P10Se49Br11
_symmetry_space_group_name_H-M   'P 1'
_cell_length_a   7.26850888
_cell_length_b   36.34254442
_cell_length_c   14.53701777
_cell_angle_alpha   120.00000000
_cell_angle_beta   120.00000000
_cell_angle_gamma   60.00000000
_symmetry_Int_Tables_number   1
_chemical_formula_structural   Li59P10Se49Br11
_chemical_formula_sum   'Li59 P10 Se49 Br11'
_cell_volume   2715.31975179
_cell_formula_units_Z   1
loop_
 _symmetry_equiv_pos_site_id
 _symmetry_equiv_pos_as_xyz
  1  'x, y, z'
loop_
 _atom_type_symbol
 _atom_type_oxidation_number
  Li+  1.0
  P5+  5.0
  Se2-  -2.0
  Br-  -1.0
loop_
 _atom_site_type_symbol
 _atom_site_label
 _atom_site_symmetry_multiplicity
 _atom_site_fract_x
 _atom_site_fract_y
 _atom_site_fract_z
 _atom_site_occupancy
  Li+  Li0  1  0.15500000  0.37366667  0.42250000  1.0
  Li+  Li1  1  0.15500000  0.37366667  0.92250000  1.0
  Li+  Li2  1  0.97030000  0.60580667  0.81815000  1.0
  Li+  Li3  1  0.97030000  0.40580667  0.31815000  1.0
  Li+  Li4  1  0.36370000  0.86072667  0.15215000  1.0
  Li+  Li5  1  0.97030000  0.13940667  0.51485000  1.0
  Li+  Li6  1  0.97030000  0.93940667  0.51485000  1.0
  Li+  Li7  1  0.97030000  0.53940667  0.15215000  1.0
  Li+  Li8  1  0.97030000  0.33940667  0.65215000  1.0
  Li+  Li9  1  0.97030000  0.13940667  0.15215000  1.0
  Li+  Li10  1  0.97030000  0.93940667  0.65215000  1.0
  Li+  Li11  1  0.97030000  0.06072667  0.81815000  1.0
  Li+  Li12  1  0.97030000  0.46072667  0.15215000  1.0
  Li+  Li13  1  0.97030000  0.46072667  0.65215000  1.0
  Li+  Li14  1  0.97030000  0.26072667  0.15215000  1.0
  Li+  Li15  1  0.97030000  0.06072667  0.15215000  1.0
  Li+  Li16  1  0.97030000  0.86072667  0.65215000  1.0
  Li+  Li17  1  0.69570000  0.26072667  0.81815000  1.0
  Li+  Li18  1  0.69570000  0.66072667  0.01485000  1.0
  Li+  Li19  1  0.69570000  0.66072667  0.51485000  1.0
  Li+  Li20  1  0.69570000  0.46072667  0.51485000  1.0
  Li+  Li21  1  0.69570000  0.06072667  0.51485000  1.0
  Li+  Li22  1  0.97030000  0.60580667  0.51485000  1.0
  Li+  Li23  1  0.36370000  0.66072667  0.51485000  1.0
  Li+  Li24  1  0.36370000  0.06072667  0.51485000  1.0
  Li+  Li25  1  0.69570000  0.13940667  0.51485000  1.0
  Li+  Li26  1  0.76460000  0.01958667  0.93230000  1.0
  Li+  Li27  1  0.76460000  0.81958667  0.93230000  1.0
  Li+  Li28  1  0.13540000  0.33374667  0.61770000  1.0
  Li+  Li29  1  0.13540000  0.13374667  0.11770000  1.0
  Li+  Li30  1  0.13540000  0.73374667  0.11770000  1.0
  Li+  Li31  1  0.33540000  0.49374667  0.11770000  1.0
  Li+  Li32  1  0.33540000  0.29374667  0.11770000  1.0
  Li+  Li33  1  0.33540000  0.69374667  0.11770000  1.0
  Li+  Li34  1  0.76460000  0.33374667  0.43230000  1.0
  Li+  Li35  1  0.76460000  0.33374667  0.93230000  1.0
  Li+  Li36  1  0.76460000  0.53374667  0.61770000  1.0
  Li+  Li37  1  0.76460000  0.73374667  0.61770000  1.0
  Li+  Li38  1  0.33540000  0.01958667  0.43230000  1.0
  Li+  Li39  1  0.33540000  0.81958667  0.93230000  1.0
  Li+  Li40  1  0.33540000  0.61958667  0.11770000  1.0
  Li+  Li41  1  0.33540000  0.01958667  0.11770000  1.0
  Li+  Li42  1  0.33540000  0.81958667  0.11770000  1.0
  Li+  Li43  1  0.76460000  0.49374667  0.33230000  1.0
  Li+  Li44  1  0.76460000  0.89374667  0.33230000  1.0
  Li+  Li45  1  0.76460000  0.89374667  0.83230000  1.0
  Li+  Li46  1  0.76460000  0.69374667  0.33230000  1.0
  Li+  Li47  1  0.13540000  0.21958667  0.33230000  1.0
  Li+  Li48  1  0.13540000  0.81958667  0.83230000  1.0
  Li+  Li49  1  0.76460000  0.49374667  0.11770000  1.0
  Li+  Li50  1  0.13540000  0.61958667  0.61770000  1.0
  Li+  Li51  1  0.13540000  0.21958667  0.11770000  1.0
  Li+  Li52  1  0.13540000  0.21958667  0.61770000  1.0
  Li+  Li53  1  0.13540000  0.81958667  0.11770000  1.0
  Li+  Li54  1  0.13540000  0.81958667  0.61770000  1.0
  Li+  Li55  1  0.76460000  0.61958667  0.33230000  1.0
  Li+  Li56  1  0.76460000  0.61958667  0.83230000  1.0
  Li+  Li57  1  0.76460000  0.41958667  0.83230000  1.0
  Li+  Li58  1  0.76460000  0.01958667  0.33230000  1.0
  P5+  P59  1  0.50000000  0.56666667  0.25000000  1.0
  P5+  P60  1  0.50000000  0.56666667  0.75000000  1.0
  P5+  P61  1  0.50000000  0.36666667  0.25000000  1.0
  P5+  P62  1  0.50000000  0.36666667  0.75000000  1.0
  P5+  P63  1  0.50000000  0.16666667  0.25000000  1.0
  P5+  P64  1  0.50000000  0.16666667  0.75000000  1.0
  P5+  P65  1  0.50000000  0.96666667  0.25000000  1.0
  P5+  P66  1  0.50000000  0.96666667  0.75000000  1.0
  P5+  P67  1  0.50000000  0.76666667  0.25000000  1.0
  P5+  P68  1  0.50000000  0.76666667  0.75000000  1.0
  Se2-  Se69  1  0.87260000  0.54182667  0.31210000  1.0
  Se2-  Se70  1  0.87260000  0.54182667  0.81210000  1.0
  Se2-  Se71  1  0.87260000  0.34182667  0.31210000  1.0
  Se2-  Se72  1  0.87260000  0.34182667  0.81210000  1.0
  Se2-  Se73  1  0.87260000  0.14182667  0.31210000  1.0
  Se2-  Se74  1  0.87260000  0.14182667  0.81210000  1.0
  Se2-  Se75  1  0.87260000  0.94182667  0.31210000  1.0
  Se2-  Se76  1  0.87260000  0.94182667  0.81210000  1.0
  Se2-  Se77  1  0.87260000  0.74182667  0.31210000  1.0
  Se2-  Se78  1  0.87260000  0.74182667  0.81210000  1.0
  Se2-  Se79  1  0.37580000  0.54182667  0.31210000  1.0
  Se2-  Se80  1  0.37580000  0.54182667  0.81210000  1.0
  Se2-  Se81  1  0.37580000  0.34182667  0.31210000  1.0
  Se2-  Se82  1  0.37580000  0.34182667  0.81210000  1.0
  Se2-  Se83  1  0.37580000  0.14182667  0.31210000  1.0
  Se2-  Se84  1  0.37580000  0.14182667  0.81210000  1.0
  Se2-  Se85  1  0.37580000  0.94182667  0.31210000  1.0
  Se2-  Se86  1  0.37580000  0.94182667  0.81210000  1.0
  Se2-  Se87  1  0.37580000  0.74182667  0.31210000  1.0
  Se2-  Se88  1  0.37580000  0.74182667  0.81210000  1.0
  Se2-  Se89  1  0.37580000  0.54182667  0.06370000  1.0
  Se2-  Se90  1  0.37580000  0.54182667  0.56370000  1.0
  Se2-  Se91  1  0.37580000  0.34182667  0.06370000  1.0
  Se2-  Se92  1  0.37580000  0.34182667  0.56370000  1.0
  Se2-  Se93  1  0.37580000  0.14182667  0.06370000  1.0
  Se2-  Se94  1  0.37580000  0.14182667  0.56370000  1.0
  Se2-  Se95  1  0.37580000  0.94182667  0.06370000  1.0
  Se2-  Se96  1  0.37580000  0.94182667  0.56370000  1.0
  Se2-  Se97  1  0.37580000  0.74182667  0.06370000  1.0
  Se2-  Se98  1  0.37580000  0.74182667  0.56370000  1.0
  Se2-  Se99  1  0.37580000  0.64118667  0.31210000  1.0
  Se2-  Se100  1  0.37580000  0.64118667  0.81210000  1.0
  Se2-  Se101  1  0.37580000  0.44118667  0.31210000  1.0
  Se2-  Se102  1  0.37580000  0.44118667  0.81210000  1.0
  Se2-  Se103  1  0.37580000  0.24118667  0.31210000  1.0
  Se2-  Se104  1  0.37580000  0.24118667  0.81210000  1.0
  Se2-  Se105  1  0.37580000  0.04118667  0.31210000  1.0
  Se2-  Se106  1  0.37580000  0.04118667  0.81210000  1.0
  Se2-  Se107  1  0.37580000  0.84118667  0.31210000  1.0
  Se2-  Se108  1  0.37580000  0.84118667  0.81210000  1.0
  Se2-  Se109  1  0.75000000  0.41666667  0.12500000  1.0
  Se2-  Se110  1  0.75000000  0.01666667  0.12500000  1.0
  Se2-  Se111  1  0.75000000  0.81666667  0.62500000  1.0
  Se2-  Se112  1  0.00000000  0.66666667  0.50000000  1.0
  Se2-  Se113  1  0.00000000  0.46666667  0.00000000  1.0
  Se2-  Se114  1  0.00000000  0.26666667  0.00000000  1.0
  Se2-  Se115  1  0.00000000  0.06666667  0.00000000  1.0
  Se2-  Se116  1  0.00000000  0.86666667  0.00000000  1.0
  Se2-  Se117  1  0.00000000  0.86666667  0.50000000  1.0
  Br-  Br118  1  0.75000000  0.61666667  0.12500000  1.0
  Br-  Br119  1  0.75000000  0.61666667  0.62500000  1.0
  Br-  Br120  1  0.75000000  0.41666667  0.62500000  1.0
  Br-  Br121  1  0.75000000  0.21666667  0.12500000  1.0
  Br-  Br122  1  0.75000000  0.21666667  0.62500000  1.0
  Br-  Br123  1  0.75000000  0.01666667  0.62500000  1.0
  Br-  Br124  1  0.75000000  0.81666667  0.12500000  1.0
  Br-  Br125  1  0.00000000  0.66666667  0.00000000  1.0
  Br-  Br126  1  0.00000000  0.46666667  0.50000000  1.0
  Br-  Br127  1  0.00000000  0.26666667  0.50000000  1.0
  Br-  Br128  1  0.00000000  0.06666667  0.50000000  1.0
