# generated using pymatgen
data_Li19Mn9GaCl40
_symmetry_space_group_name_H-M   'P 1'
_cell_length_a   7.41620663
_cell_length_b   37.08103316
_cell_length_c   14.83241326
_cell_angle_alpha   60.00000000
_cell_angle_beta   120.00000000
_cell_angle_gamma   120.00000000
_symmetry_Int_Tables_number   1
_chemical_formula_structural   Li19Mn9GaCl40
_chemical_formula_sum   'Li38 Mn18 Ga2 Cl80'
_cell_volume   2884.23383380
_cell_formula_units_Z   2
loop_
 _symmetry_equiv_pos_site_id
 _symmetry_equiv_pos_as_xyz
  1  'x, y, z'
loop_
 _atom_type_symbol
 _atom_type_oxidation_number
  Li+  1.0
  Mn2+  2.0
  Ga3+  3.0
  Cl-  -1.0
loop_
 _atom_site_type_symbol
 _atom_site_label
 _atom_site_symmetry_multiplicity
 _atom_site_fract_x
 _atom_site_fract_y
 _atom_site_fract_z
 _atom_site_occupancy
  Li+  Li0  1  0.49919228  0.99822477  0.50134369  1.0
  Li+  Li1  1  0.50000000  0.80000000  0.50000000  1.0
  Li+  Li2  1  0.49264476  0.40033094  0.49733261  1.0
  Li+  Li3  1  0.50000000  0.20000000  0.50000000  1.0
  Li+  Li4  1  0.50000000  0.40000000  0.00000000  1.0
  Li+  Li5  1  0.50000000  0.20000000  0.00000000  1.0
  Li+  Li6  1  0.50000000  0.50000000  0.75000000  1.0
  Li+  Li7  1  0.50000000  0.10000000  0.75000000  1.0
  Li+  Li8  1  0.49551951  0.89971674  0.25127951  1.0
  Li+  Li9  1  0.50000000  0.70000000  0.25000000  1.0
  Li+  Li10  1  0.49945373  0.30370074  0.25080577  1.0
  Li+  Li11  1  0.00000000  0.50000000  0.50000000  1.0
  Li+  Li12  1  0.00000000  0.30000000  0.50000000  1.0
  Li+  Li13  1  0.00000000  0.90000000  0.00000000  1.0
  Li+  Li14  1  0.50000000  0.90000000  0.50000000  1.0
  Li+  Li15  1  0.50048847  0.70087321  0.49690728  1.0
  Li+  Li16  1  0.50000000  0.10000000  0.50000000  1.0
  Li+  Li17  1  0.50000000  0.90000000  0.00000000  1.0
  Li+  Li18  1  0.50000000  0.70000000  0.00000000  1.0
  Li+  Li19  1  0.50000000  0.50000000  0.00000000  1.0
  Li+  Li20  1  0.12500000  0.97500000  0.68750000  1.0
  Li+  Li21  1  0.12804239  0.77030024  0.68598708  1.0
  Li+  Li22  1  0.12187040  0.57343331  0.68728480  1.0
  Li+  Li23  1  0.12500000  0.37500000  0.68750000  1.0
  Li+  Li24  1  0.12161551  0.17097478  0.68707833  1.0
  Li+  Li25  1  0.12763282  0.97578383  0.19070873  1.0
  Li+  Li26  1  0.12481435  0.77378603  0.18994804  1.0
  Li+  Li27  1  0.12344320  0.57183484  0.18935412  1.0
  Li+  Li28  1  0.12500000  0.37500000  0.18750000  1.0
  Li+  Li29  1  0.12500000  0.17500000  0.18750000  1.0
  Li+  Li30  1  0.87500000  0.82500000  0.31250000  1.0
  Li+  Li31  1  0.87500000  0.42500000  0.31250000  1.0
  Li+  Li32  1  0.87500000  0.22500000  0.31250000  1.0
  Li+  Li33  1  0.87500000  0.02500000  0.31250000  1.0
  Li+  Li34  1  0.87500000  0.82500000  0.81250000  1.0
  Li+  Li35  1  0.87500000  0.42500000  0.81250000  1.0
  Li+  Li36  1  0.87500000  0.22500000  0.81250000  1.0
  Li+  Li37  1  0.87500000  0.02500000  0.81250000  1.0
  Mn2+  Mn38  1  0.50000000  0.60000000  0.50000000  1.0
  Mn2+  Mn39  1  0.50000000  0.00000000  0.00000000  1.0
  Mn2+  Mn40  1  0.50000000  0.80000000  0.00000000  1.0
  Mn2+  Mn41  1  0.50000000  0.60000000  0.00000000  1.0
  Mn2+  Mn42  1  0.50000000  0.90000000  0.75000000  1.0
  Mn2+  Mn43  1  0.50000000  0.70000000  0.75000000  1.0
  Mn2+  Mn44  1  0.50000000  0.30000000  0.75000000  1.0
  Mn2+  Mn45  1  0.49906228  0.49914882  0.24803182  1.0
  Mn2+  Mn46  1  0.50448990  0.09936176  0.25139764  1.0
  Mn2+  Mn47  1  0.00000000  0.90000000  0.50000000  1.0
  Mn2+  Mn48  1  0.00000000  0.10000000  0.50000000  1.0
  Mn2+  Mn49  1  0.00000000  0.70000000  0.00000000  1.0
  Mn2+  Mn50  1  0.00197179  0.50141544  0.99862054  1.0
  Mn2+  Mn51  1  0.00000000  0.30000000  0.00000000  1.0
  Mn2+  Mn52  1  0.00000000  0.10000000  0.00000000  1.0
  Mn2+  Mn53  1  0.49919787  0.49998276  0.49663477  1.0
  Mn2+  Mn54  1  0.50000000  0.30000000  0.00000000  1.0
  Mn2+  Mn55  1  0.50008506  0.10183693  0.99611256  1.0
  Ga3+  Ga56  1  0.00000000  0.70000000  0.50000000  1.0
  Ga3+  Ga57  1  0.50000000  0.30000000  0.50000000  1.0
  Cl-  Cl58  1  0.25763178  0.85317431  0.62597545  1.0
  Cl-  Cl59  1  0.25500000  0.65300000  0.62250000  1.0
  Cl-  Cl60  1  0.25500000  0.45300000  0.62250000  1.0
  Cl-  Cl61  1  0.25500000  0.25300000  0.62250000  1.0
  Cl-  Cl62  1  0.25500000  0.05300000  0.62250000  1.0
  Cl-  Cl63  1  0.25500000  0.85300000  0.12250000  1.0
  Cl-  Cl64  1  0.25500000  0.65300000  0.12250000  1.0
  Cl-  Cl65  1  0.25500000  0.45300000  0.12250000  1.0
  Cl-  Cl66  1  0.25500000  0.25300000  0.12250000  1.0
  Cl-  Cl67  1  0.25500000  0.05300000  0.12250000  1.0
  Cl-  Cl68  1  0.25500000  0.94900000  0.38250000  1.0
  Cl-  Cl69  1  0.25500000  0.74900000  0.38250000  1.0
  Cl-  Cl70  1  0.25500000  0.54900000  0.38250000  1.0
  Cl-  Cl71  1  0.25500000  0.34900000  0.38250000  1.0
  Cl-  Cl72  1  0.25500000  0.14900000  0.38250000  1.0
  Cl-  Cl73  1  0.25500000  0.94900000  0.88250000  1.0
  Cl-  Cl74  1  0.25398936  0.74626514  0.87933739  1.0
  Cl-  Cl75  1  0.25500000  0.54900000  0.88250000  1.0
  Cl-  Cl76  1  0.25342260  0.34962648  0.88134119  1.0
  Cl-  Cl77  1  0.25500000  0.14900000  0.88250000  1.0
  Cl-  Cl78  1  0.73500000  0.94900000  0.62250000  1.0
  Cl-  Cl79  1  0.73500000  0.74900000  0.62250000  1.0
  Cl-  Cl80  1  0.73615715  0.55079547  0.62206889  1.0
  Cl-  Cl81  1  0.73500000  0.34900000  0.62250000  1.0
  Cl-  Cl82  1  0.73500000  0.14900000  0.62250000  1.0
  Cl-  Cl83  1  0.73500000  0.94900000  0.12250000  1.0
  Cl-  Cl84  1  0.73500000  0.74900000  0.12250000  1.0
  Cl-  Cl85  1  0.73500000  0.54900000  0.12250000  1.0
  Cl-  Cl86  1  0.73500000  0.34900000  0.12250000  1.0
  Cl-  Cl87  1  0.73500000  0.14900000  0.12250000  1.0
  Cl-  Cl88  1  0.25500000  0.94900000  0.62250000  1.0
  Cl-  Cl89  1  0.25500000  0.74900000  0.62250000  1.0
  Cl-  Cl90  1  0.25500000  0.54900000  0.62250000  1.0
  Cl-  Cl91  1  0.25500000  0.34900000  0.62250000  1.0
  Cl-  Cl92  1  0.25500000  0.14900000  0.62250000  1.0
  Cl-  Cl93  1  0.25500000  0.94900000  0.12250000  1.0
  Cl-  Cl94  1  0.25500000  0.74900000  0.12250000  1.0
  Cl-  Cl95  1  0.25500000  0.54900000  0.12250000  1.0
  Cl-  Cl96  1  0.25613904  0.35303934  0.11922056  1.0
  Cl-  Cl97  1  0.25918428  0.15220158  0.12175244  1.0
  Cl-  Cl98  1  0.74500000  0.94700000  0.37750000  1.0
  Cl-  Cl99  1  0.74500000  0.74700000  0.37750000  1.0
  Cl-  Cl100  1  0.74500000  0.54700000  0.37750000  1.0
  Cl-  Cl101  1  0.74500000  0.34700000  0.37750000  1.0
  Cl-  Cl102  1  0.73994263  0.14439475  0.37652761  1.0
  Cl-  Cl103  1  0.74645955  0.94418898  0.87899656  1.0
  Cl-  Cl104  1  0.74500000  0.74700000  0.87750000  1.0
  Cl-  Cl105  1  0.74500000  0.54700000  0.87750000  1.0
  Cl-  Cl106  1  0.74500000  0.34700000  0.87750000  1.0
  Cl-  Cl107  1  0.74507537  0.14980874  0.87868786  1.0
  Cl-  Cl108  1  0.74004717  0.85279859  0.61466279  1.0
  Cl-  Cl109  1  0.74500000  0.65100000  0.61750000  1.0
  Cl-  Cl110  1  0.74500000  0.45100000  0.61750000  1.0
  Cl-  Cl111  1  0.74500000  0.25100000  0.61750000  1.0
  Cl-  Cl112  1  0.74500000  0.05100000  0.61750000  1.0
  Cl-  Cl113  1  0.74500000  0.85100000  0.11750000  1.0
  Cl-  Cl114  1  0.74474029  0.65059793  0.11684315  1.0
  Cl-  Cl115  1  0.74515501  0.45327650  0.11758045  1.0
  Cl-  Cl116  1  0.74367751  0.25004549  0.11293993  1.0
  Cl-  Cl117  1  0.74500000  0.05100000  0.11750000  1.0
  Cl-  Cl118  1  0.26500000  0.85100000  0.37750000  1.0
  Cl-  Cl119  1  0.26500000  0.65100000  0.37750000  1.0
  Cl-  Cl120  1  0.26222531  0.45502442  0.37993711  1.0
  Cl-  Cl121  1  0.26500000  0.25100000  0.37750000  1.0
  Cl-  Cl122  1  0.26500000  0.05100000  0.37750000  1.0
  Cl-  Cl123  1  0.26522333  0.85230407  0.87123088  1.0
  Cl-  Cl124  1  0.26500000  0.65100000  0.87750000  1.0
  Cl-  Cl125  1  0.26256304  0.44729033  0.87431916  1.0
  Cl-  Cl126  1  0.26500000  0.25100000  0.87750000  1.0
  Cl-  Cl127  1  0.26567267  0.05417519  0.87649433  1.0
  Cl-  Cl128  1  0.74500000  0.85100000  0.37750000  1.0
  Cl-  Cl129  1  0.74500000  0.65100000  0.37750000  1.0
  Cl-  Cl130  1  0.74500000  0.45100000  0.37750000  1.0
  Cl-  Cl131  1  0.74500000  0.25100000  0.37750000  1.0
  Cl-  Cl132  1  0.74500000  0.05100000  0.37750000  1.0
  Cl-  Cl133  1  0.74272588  0.84947450  0.87730433  1.0
  Cl-  Cl134  1  0.74500000  0.65100000  0.87750000  1.0
  Cl-  Cl135  1  0.74500000  0.45100000  0.87750000  1.0
  Cl-  Cl136  1  0.74500000  0.25100000  0.87750000  1.0
  Cl-  Cl137  1  0.74500000  0.05100000  0.87750000  1.0
