# generated using pymatgen
data_Li19Mn9GaCl40
_symmetry_space_group_name_H-M   'P 1'
_cell_length_a   14.83507776
_cell_length_b   7.41753888
_cell_length_c   37.08769440
_cell_angle_alpha   120.00000000
_cell_angle_beta   120.00000000
_cell_angle_gamma   60.00000000
_symmetry_Int_Tables_number   1
_chemical_formula_structural   Li19Mn9GaCl40
_chemical_formula_sum   'Li38 Mn18 Ga2 Cl80'
_cell_volume   2885.78848664
_cell_formula_units_Z   2
loop_
 _symmetry_equiv_pos_site_id
 _symmetry_equiv_pos_as_xyz
  1  'x, y, z'
loop_
 _atom_type_symbol
 _atom_type_oxidation_number
  Li+  1.0
  Mn2+  2.0
  Ga3+  3.0
  Cl-  -1.0
loop_
 _atom_site_type_symbol
 _atom_site_label
 _atom_site_symmetry_multiplicity
 _atom_site_fract_x
 _atom_site_fract_y
 _atom_site_fract_z
 _atom_site_occupancy
  Li+  Li0  1  0.75000000  0.16666667  0.00000000  1.0
  Li+  Li1  1  0.75000000  0.16666667  0.20000000  1.0
  Li+  Li2  1  0.75000000  0.16666667  0.60000000  1.0
  Li+  Li3  1  0.75000000  0.16666667  0.80000000  1.0
  Li+  Li4  1  0.25000000  0.16666667  0.60000000  1.0
  Li+  Li5  1  0.25000000  0.16666667  0.80000000  1.0
  Li+  Li6  1  0.00000000  0.16666667  0.50000000  1.0
  Li+  Li7  1  0.00000000  0.16666667  0.90000000  1.0
  Li+  Li8  1  0.50000000  0.16666667  0.10000000  1.0
  Li+  Li9  1  0.50000000  0.16666667  0.30000000  1.0
  Li+  Li10  1  0.50000000  0.16666667  0.70000000  1.0
  Li+  Li11  1  0.75000000  0.66666667  0.50000000  1.0
  Li+  Li12  1  0.75000000  0.66666667  0.70000000  1.0
  Li+  Li13  1  0.25000000  0.66666667  0.10000000  1.0
  Li+  Li14  1  0.75000000  0.16666667  0.10000000  1.0
  Li+  Li15  1  0.75000000  0.16666667  0.30000000  1.0
  Li+  Li16  1  0.75000000  0.16666667  0.90000000  1.0
  Li+  Li17  1  0.25000000  0.16666667  0.10000000  1.0
  Li+  Li18  1  0.25000000  0.16666667  0.30000000  1.0
  Li+  Li19  1  0.25000000  0.16666667  0.50000000  1.0
  Li+  Li20  1  0.93750000  0.54166667  0.02500000  1.0
  Li+  Li21  1  0.93750000  0.54166667  0.22500000  1.0
  Li+  Li22  1  0.93750000  0.54166667  0.42500000  1.0
  Li+  Li23  1  0.93750000  0.54166667  0.62500000  1.0
  Li+  Li24  1  0.93750000  0.54166667  0.82500000  1.0
  Li+  Li25  1  0.43750000  0.54166667  0.02500000  1.0
  Li+  Li26  1  0.43750000  0.54166667  0.22500000  1.0
  Li+  Li27  1  0.43750000  0.54166667  0.42500000  1.0
  Li+  Li28  1  0.43750000  0.54166667  0.62500000  1.0
  Li+  Li29  1  0.43750000  0.54166667  0.82500000  1.0
  Li+  Li30  1  0.56250000  0.79166667  0.17500000  1.0
  Li+  Li31  1  0.56250000  0.79166667  0.57500000  1.0
  Li+  Li32  1  0.56250000  0.79166667  0.77500000  1.0
  Li+  Li33  1  0.56250000  0.79166667  0.97500000  1.0
  Li+  Li34  1  0.06250000  0.79166667  0.17500000  1.0
  Li+  Li35  1  0.06250000  0.79166667  0.57500000  1.0
  Li+  Li36  1  0.06250000  0.79166667  0.77500000  1.0
  Li+  Li37  1  0.06250000  0.79166667  0.97500000  1.0
  Mn2+  Mn38  1  0.75000000  0.16666667  0.40000000  1.0
  Mn2+  Mn39  1  0.25000000  0.16666667  0.00000000  1.0
  Mn2+  Mn40  1  0.25000000  0.16666667  0.20000000  1.0
  Mn2+  Mn41  1  0.25000000  0.16666667  0.40000000  1.0
  Mn2+  Mn42  1  0.00000000  0.16666667  0.10000000  1.0
  Mn2+  Mn43  1  0.00000000  0.16666667  0.30000000  1.0
  Mn2+  Mn44  1  0.00000000  0.16666667  0.70000000  1.0
  Mn2+  Mn45  1  0.50000000  0.16666667  0.50000000  1.0
  Mn2+  Mn46  1  0.50000000  0.16666667  0.90000000  1.0
  Mn2+  Mn47  1  0.75000000  0.66666667  0.10000000  1.0
  Mn2+  Mn48  1  0.75000000  0.66666667  0.90000000  1.0
  Mn2+  Mn49  1  0.25000000  0.66666667  0.30000000  1.0
  Mn2+  Mn50  1  0.25000000  0.66666667  0.50000000  1.0
  Mn2+  Mn51  1  0.25000000  0.66666667  0.70000000  1.0
  Mn2+  Mn52  1  0.25000000  0.66666667  0.90000000  1.0
  Mn2+  Mn53  1  0.75000000  0.16666667  0.50000000  1.0
  Mn2+  Mn54  1  0.25000000  0.16666667  0.70000000  1.0
  Mn2+  Mn55  1  0.25000000  0.16666667  0.90000000  1.0
  Ga3+  Ga56  1  0.75000000  0.66666667  0.30000000  1.0
  Ga3+  Ga57  1  0.75000000  0.16666667  0.70000000  1.0
  Cl-  Cl58  1  0.87250000  0.41166667  0.14700000  1.0
  Cl-  Cl59  1  0.87250000  0.41166667  0.34700000  1.0
  Cl-  Cl60  1  0.87250000  0.41166667  0.54700000  1.0
  Cl-  Cl61  1  0.87250000  0.41166667  0.74700000  1.0
  Cl-  Cl62  1  0.87250000  0.41166667  0.94700000  1.0
  Cl-  Cl63  1  0.37250000  0.41166667  0.14700000  1.0
  Cl-  Cl64  1  0.37250000  0.41166667  0.34700000  1.0
  Cl-  Cl65  1  0.37250000  0.41166667  0.54700000  1.0
  Cl-  Cl66  1  0.37250000  0.41166667  0.74700000  1.0
  Cl-  Cl67  1  0.37250000  0.41166667  0.94700000  1.0
  Cl-  Cl68  1  0.63250000  0.41166667  0.05100000  1.0
  Cl-  Cl69  1  0.63250000  0.41166667  0.25100000  1.0
  Cl-  Cl70  1  0.63250000  0.41166667  0.45100000  1.0
  Cl-  Cl71  1  0.63250000  0.41166667  0.65100000  1.0
  Cl-  Cl72  1  0.63250000  0.41166667  0.85100000  1.0
  Cl-  Cl73  1  0.13250000  0.41166667  0.05100000  1.0
  Cl-  Cl74  1  0.13250000  0.41166667  0.25100000  1.0
  Cl-  Cl75  1  0.13250000  0.41166667  0.45100000  1.0
  Cl-  Cl76  1  0.13250000  0.41166667  0.65100000  1.0
  Cl-  Cl77  1  0.13250000  0.41166667  0.85100000  1.0
  Cl-  Cl78  1  0.87250000  0.93166667  0.05100000  1.0
  Cl-  Cl79  1  0.87250000  0.93166667  0.25100000  1.0
  Cl-  Cl80  1  0.87250000  0.93166667  0.45100000  1.0
  Cl-  Cl81  1  0.87250000  0.93166667  0.65100000  1.0
  Cl-  Cl82  1  0.87250000  0.93166667  0.85100000  1.0
  Cl-  Cl83  1  0.37250000  0.93166667  0.05100000  1.0
  Cl-  Cl84  1  0.37250000  0.93166667  0.25100000  1.0
  Cl-  Cl85  1  0.37250000  0.93166667  0.45100000  1.0
  Cl-  Cl86  1  0.37250000  0.93166667  0.65100000  1.0
  Cl-  Cl87  1  0.37250000  0.93166667  0.85100000  1.0
  Cl-  Cl88  1  0.87250000  0.41166667  0.05100000  1.0
  Cl-  Cl89  1  0.87250000  0.41166667  0.25100000  1.0
  Cl-  Cl90  1  0.87250000  0.41166667  0.45100000  1.0
  Cl-  Cl91  1  0.87250000  0.41166667  0.65100000  1.0
  Cl-  Cl92  1  0.87250000  0.41166667  0.85100000  1.0
  Cl-  Cl93  1  0.37250000  0.41166667  0.05100000  1.0
  Cl-  Cl94  1  0.37250000  0.41166667  0.25100000  1.0
  Cl-  Cl95  1  0.37250000  0.41166667  0.45100000  1.0
  Cl-  Cl96  1  0.37250000  0.41166667  0.65100000  1.0
  Cl-  Cl97  1  0.37250000  0.41166667  0.85100000  1.0
  Cl-  Cl98  1  0.62750000  0.92166667  0.05300000  1.0
  Cl-  Cl99  1  0.62750000  0.92166667  0.25300000  1.0
  Cl-  Cl100  1  0.62750000  0.92166667  0.45300000  1.0
  Cl-  Cl101  1  0.62750000  0.92166667  0.65300000  1.0
  Cl-  Cl102  1  0.62750000  0.92166667  0.85300000  1.0
  Cl-  Cl103  1  0.12750000  0.92166667  0.05300000  1.0
  Cl-  Cl104  1  0.12750000  0.92166667  0.25300000  1.0
  Cl-  Cl105  1  0.12750000  0.92166667  0.45300000  1.0
  Cl-  Cl106  1  0.12750000  0.92166667  0.65300000  1.0
  Cl-  Cl107  1  0.12750000  0.92166667  0.85300000  1.0
  Cl-  Cl108  1  0.86750000  0.92166667  0.14900000  1.0
  Cl-  Cl109  1  0.86750000  0.92166667  0.34900000  1.0
  Cl-  Cl110  1  0.86750000  0.92166667  0.54900000  1.0
  Cl-  Cl111  1  0.86750000  0.92166667  0.74900000  1.0
  Cl-  Cl112  1  0.86750000  0.92166667  0.94900000  1.0
  Cl-  Cl113  1  0.36750000  0.92166667  0.14900000  1.0
  Cl-  Cl114  1  0.36750000  0.92166667  0.34900000  1.0
  Cl-  Cl115  1  0.36750000  0.92166667  0.54900000  1.0
  Cl-  Cl116  1  0.36750000  0.92166667  0.74900000  1.0
  Cl-  Cl117  1  0.36750000  0.92166667  0.94900000  1.0
  Cl-  Cl118  1  0.62750000  0.40166667  0.14900000  1.0
  Cl-  Cl119  1  0.62750000  0.40166667  0.34900000  1.0
  Cl-  Cl120  1  0.62750000  0.40166667  0.54900000  1.0
  Cl-  Cl121  1  0.62750000  0.40166667  0.74900000  1.0
  Cl-  Cl122  1  0.62750000  0.40166667  0.94900000  1.0
  Cl-  Cl123  1  0.12750000  0.40166667  0.14900000  1.0
  Cl-  Cl124  1  0.12750000  0.40166667  0.34900000  1.0
  Cl-  Cl125  1  0.12750000  0.40166667  0.54900000  1.0
  Cl-  Cl126  1  0.12750000  0.40166667  0.74900000  1.0
  Cl-  Cl127  1  0.12750000  0.40166667  0.94900000  1.0
  Cl-  Cl128  1  0.62750000  0.92166667  0.14900000  1.0
  Cl-  Cl129  1  0.62750000  0.92166667  0.34900000  1.0
  Cl-  Cl130  1  0.62750000  0.92166667  0.54900000  1.0
  Cl-  Cl131  1  0.62750000  0.92166667  0.74900000  1.0
  Cl-  Cl132  1  0.62750000  0.92166667  0.94900000  1.0
  Cl-  Cl133  1  0.12750000  0.92166667  0.14900000  1.0
  Cl-  Cl134  1  0.12750000  0.92166667  0.34900000  1.0
  Cl-  Cl135  1  0.12750000  0.92166667  0.54900000  1.0
  Cl-  Cl136  1  0.12750000  0.92166667  0.74900000  1.0
  Cl-  Cl137  1  0.12750000  0.92166667  0.94900000  1.0
