# generated using pymatgen
data_Li4GeO4
_symmetry_space_group_name_H-M   'P 1'
_cell_length_a   10.69519518
_cell_length_b   12.10000000
_cell_length_c   10.69519518
_cell_angle_alpha   90.00000000
_cell_angle_beta   86.96918420
_cell_angle_gamma   90.00000000
_symmetry_Int_Tables_number   1
_chemical_formula_structural   Li4GeO4
_chemical_formula_sum   'Li64 Ge16 O64'
_cell_volume   1382.14911925
_cell_formula_units_Z   16
loop_
 _symmetry_equiv_pos_site_id
 _symmetry_equiv_pos_as_xyz
  1  'x, y, z'
loop_
 _atom_type_symbol
 _atom_type_oxidation_number
  Li+  1.0
  Ge4+  4.0
  O2-  -2.0
loop_
 _atom_site_type_symbol
 _atom_site_label
 _atom_site_symmetry_multiplicity
 _atom_site_fract_x
 _atom_site_fract_y
 _atom_site_fract_z
 _atom_site_occupancy
  Li+  Li0  1  0.07900000  0.75000000  0.32900000  1.0
  Li+  Li1  1  0.08039055  0.25037222  0.32824979  1.0
  Li+  Li2  1  0.07945956  0.75022581  0.83529527  1.0
  Li+  Li3  1  0.08000351  0.24921755  0.83121644  1.0
  Li+  Li4  1  0.57552842  0.75039520  0.32870310  1.0
  Li+  Li5  1  0.57906485  0.24838936  0.32753734  1.0
  Li+  Li6  1  0.57900000  0.75000000  0.82900000  1.0
  Li+  Li7  1  0.57900000  0.25000000  0.82900000  1.0
  Li+  Li8  1  0.07900000  0.00000000  0.32900000  1.0
  Li+  Li9  1  0.07900000  0.50000000  0.32900000  1.0
  Li+  Li10  1  0.07900000  0.00000000  0.82900000  1.0
  Li+  Li11  1  0.07900000  0.50000000  0.82900000  1.0
  Li+  Li12  1  0.57900000  0.00000000  0.32900000  1.0
  Li+  Li13  1  0.57900000  0.50000000  0.32900000  1.0
  Li+  Li14  1  0.57900000  0.00000000  0.82900000  1.0
  Li+  Li15  1  0.57900000  0.50000000  0.82900000  1.0
  Li+  Li16  1  0.42101586  0.75059616  0.67224878  1.0
  Li+  Li17  1  0.42100000  0.25000000  0.67100000  1.0
  Li+  Li18  1  0.42100000  0.75000000  0.17100000  1.0
  Li+  Li19  1  0.42193251  0.24831256  0.17045564  1.0
  Li+  Li20  1  0.92100000  0.75000000  0.67100000  1.0
  Li+  Li21  1  0.92100000  0.25000000  0.67100000  1.0
  Li+  Li22  1  0.92714504  0.75040919  0.17251927  1.0
  Li+  Li23  1  0.92100000  0.25000000  0.17100000  1.0
  Li+  Li24  1  0.42100000  0.00000000  0.67100000  1.0
  Li+  Li25  1  0.42100000  0.50000000  0.67100000  1.0
  Li+  Li26  1  0.42100000  0.00000000  0.17100000  1.0
  Li+  Li27  1  0.42100000  0.50000000  0.17100000  1.0
  Li+  Li28  1  0.92100000  0.00000000  0.67100000  1.0
  Li+  Li29  1  0.92100000  0.50000000  0.67100000  1.0
  Li+  Li30  1  0.92224001  0.00000846  0.17118065  1.0
  Li+  Li31  1  0.92100000  0.50000000  0.17100000  1.0
  Li+  Li32  1  0.06384635  0.62739380  0.53226093  1.0
  Li+  Li33  1  0.06300000  0.12500000  0.53600000  1.0
  Li+  Li34  1  0.06300000  0.62500000  0.03600000  1.0
  Li+  Li35  1  0.06300000  0.12500000  0.03600000  1.0
  Li+  Li36  1  0.56300000  0.62500000  0.53600000  1.0
  Li+  Li37  1  0.56300000  0.12500000  0.53600000  1.0
  Li+  Li38  1  0.56300000  0.62500000  0.03600000  1.0
  Li+  Li39  1  0.56300000  0.12500000  0.03600000  1.0
  Li+  Li40  1  0.28600000  0.87500000  0.31300000  1.0
  Li+  Li41  1  0.28600000  0.37500000  0.31300000  1.0
  Li+  Li42  1  0.28600000  0.87500000  0.81300000  1.0
  Li+  Li43  1  0.28600000  0.37500000  0.81300000  1.0
  Li+  Li44  1  0.78600000  0.87500000  0.31300000  1.0
  Li+  Li45  1  0.78624058  0.37178475  0.31337663  1.0
  Li+  Li46  1  0.78600000  0.87500000  0.81300000  1.0
  Li+  Li47  1  0.78600000  0.37500000  0.81300000  1.0
  Li+  Li48  1  0.43700000  0.87500000  0.46400000  1.0
  Li+  Li49  1  0.43539898  0.37309894  0.46419434  1.0
  Li+  Li50  1  0.43700000  0.87500000  0.96400000  1.0
  Li+  Li51  1  0.43700000  0.37500000  0.96400000  1.0
  Li+  Li52  1  0.93700000  0.87500000  0.46400000  1.0
  Li+  Li53  1  0.93700000  0.37500000  0.46400000  1.0
  Li+  Li54  1  0.93700000  0.87500000  0.96400000  1.0
  Li+  Li55  1  0.93700000  0.37500000  0.96400000  1.0
  Li+  Li56  1  0.21400000  0.62500000  0.68700000  1.0
  Li+  Li57  1  0.21478717  0.12136711  0.68767643  1.0
  Li+  Li58  1  0.21400000  0.62500000  0.18700000  1.0
  Li+  Li59  1  0.21400000  0.12500000  0.18700000  1.0
  Li+  Li60  1  0.71400000  0.62500000  0.68700000  1.0
  Li+  Li61  1  0.71387414  0.12236650  0.69049803  1.0
  Li+  Li62  1  0.71702330  0.62153389  0.18852338  1.0
  Li+  Li63  1  0.71400000  0.12500000  0.18700000  1.0
  Ge4+  Ge64  1  0.32773209  0.62883054  0.41918535  1.0
  Ge4+  Ge65  1  0.33194855  0.12560699  0.42175972  1.0
  Ge4+  Ge66  1  0.33050000  0.62500000  0.91950000  1.0
  Ge4+  Ge67  1  0.33050000  0.12500000  0.91950000  1.0
  Ge4+  Ge68  1  0.83050000  0.62500000  0.41950000  1.0
  Ge4+  Ge69  1  0.83050000  0.12500000  0.41950000  1.0
  Ge4+  Ge70  1  0.83050000  0.62500000  0.91950000  1.0
  Ge4+  Ge71  1  0.83050000  0.12500000  0.91950000  1.0
  Ge4+  Ge72  1  0.16974930  0.87544498  0.58415341  1.0
  Ge4+  Ge73  1  0.16624630  0.37676148  0.57831121  1.0
  Ge4+  Ge74  1  0.16950000  0.87500000  0.08050000  1.0
  Ge4+  Ge75  1  0.16950000  0.37500000  0.08050000  1.0
  Ge4+  Ge76  1  0.66950000  0.87500000  0.58050000  1.0
  Ge4+  Ge77  1  0.66950000  0.37500000  0.58050000  1.0
  Ge4+  Ge78  1  0.66812073  0.87678617  0.08064412  1.0
  Ge4+  Ge79  1  0.67156155  0.37381264  0.08236158  1.0
  O2-  O80  1  0.39825000  0.74640000  0.35175000  1.0
  O2-  O81  1  0.39825000  0.24640000  0.35175000  1.0
  O2-  O82  1  0.39825000  0.74640000  0.85175000  1.0
  O2-  O83  1  0.39825000  0.24640000  0.85175000  1.0
  O2-  O84  1  0.89825000  0.74640000  0.35175000  1.0
  O2-  O85  1  0.89825000  0.24640000  0.35175000  1.0
  O2-  O86  1  0.89760007  0.74345852  0.85078444  1.0
  O2-  O87  1  0.89825000  0.24640000  0.85175000  1.0
  O2-  O88  1  0.10175000  0.75360000  0.64825000  1.0
  O2-  O89  1  0.10397985  0.25374388  0.65248362  1.0
  O2-  O90  1  0.10175000  0.75360000  0.14825000  1.0
  O2-  O91  1  0.10175000  0.25360000  0.14825000  1.0
  O2-  O92  1  0.60175000  0.75360000  0.64825000  1.0
  O2-  O93  1  0.59940933  0.25609832  0.65172604  1.0
  O2-  O94  1  0.60334304  0.75735402  0.14803088  1.0
  O2-  O95  1  0.60175000  0.25360000  0.14825000  1.0
  O2-  O96  1  0.39825000  0.50360000  0.35175000  1.0
  O2-  O97  1  0.39825000  0.00360000  0.35175000  1.0
  O2-  O98  1  0.40270026  0.50714160  0.85368149  1.0
  O2-  O99  1  0.39825000  0.00360000  0.85175000  1.0
  O2-  O100  1  0.89825000  0.50360000  0.35175000  1.0
  O2-  O101  1  0.89825000  0.00360000  0.35175000  1.0
  O2-  O102  1  0.89700252  0.50351286  0.85224915  1.0
  O2-  O103  1  0.89825000  0.00360000  0.85175000  1.0
  O2-  O104  1  0.10175000  0.99640000  0.64825000  1.0
  O2-  O105  1  0.10175000  0.49640000  0.64825000  1.0
  O2-  O106  1  0.10175000  0.99640000  0.14825000  1.0
  O2-  O107  1  0.10175000  0.49640000  0.14825000  1.0
  O2-  O108  1  0.60175000  0.99640000  0.64825000  1.0
  O2-  O109  1  0.60215376  0.49344332  0.64601953  1.0
  O2-  O110  1  0.60336420  0.99692788  0.15114950  1.0
  O2-  O111  1  0.60175000  0.49640000  0.14825000  1.0
  O2-  O112  1  0.36420539  0.62594996  0.57972897  1.0
  O2-  O113  1  0.36550000  0.12500000  0.57870000  1.0
  O2-  O114  1  0.36550000  0.62500000  0.07870000  1.0
  O2-  O115  1  0.36352523  0.12850613  0.07856714  1.0
  O2-  O116  1  0.86862680  0.62637418  0.58288676  1.0
  O2-  O117  1  0.86550000  0.12500000  0.57870000  1.0
  O2-  O118  1  0.86550000  0.62500000  0.07870000  1.0
  O2-  O119  1  0.86550000  0.12500000  0.07870000  1.0
  O2-  O120  1  0.32870000  0.87500000  0.61550000  1.0
  O2-  O121  1  0.32870000  0.37500000  0.61550000  1.0
  O2-  O122  1  0.32870000  0.87500000  0.11550000  1.0
  O2-  O123  1  0.32870000  0.37500000  0.11550000  1.0
  O2-  O124  1  0.82903656  0.87138185  0.61935741  1.0
  O2-  O125  1  0.82870000  0.37500000  0.61550000  1.0
  O2-  O126  1  0.82870000  0.87500000  0.11550000  1.0
  O2-  O127  1  0.83148711  0.37538664  0.11467407  1.0
  O2-  O128  1  0.13450000  0.87500000  0.42130000  1.0
  O2-  O129  1  0.13450000  0.37500000  0.42130000  1.0
  O2-  O130  1  0.13450000  0.87500000  0.92130000  1.0
  O2-  O131  1  0.13450000  0.37500000  0.92130000  1.0
  O2-  O132  1  0.63450000  0.87500000  0.42130000  1.0
  O2-  O133  1  0.63413311  0.37132142  0.42237526  1.0
  O2-  O134  1  0.63450000  0.87500000  0.92130000  1.0
  O2-  O135  1  0.63450000  0.37500000  0.92130000  1.0
  O2-  O136  1  0.17130000  0.62500000  0.38450000  1.0
  O2-  O137  1  0.17130000  0.12500000  0.38450000  1.0
  O2-  O138  1  0.17048307  0.62234230  0.88571575  1.0
  O2-  O139  1  0.17130000  0.12500000  0.88450000  1.0
  O2-  O140  1  0.67130000  0.62500000  0.38450000  1.0
  O2-  O141  1  0.67130000  0.12500000  0.38450000  1.0
  O2-  O142  1  0.67130000  0.62500000  0.88450000  1.0
  O2-  O143  1  0.67130000  0.12500000  0.88450000  1.0
