# generated using pymatgen
data_Li4GeO4
_symmetry_space_group_name_H-M   'P 1'
_cell_length_a   10.69706361
_cell_length_b   10.69706361
_cell_length_c   12.10211385
_cell_angle_alpha   90.00000000
_cell_angle_beta   90.00000000
_cell_angle_gamma   93.03081580
_symmetry_Int_Tables_number   1
_chemical_formula_structural   Li4GeO4
_chemical_formula_sum   'Li64 Ge16 O64'
_cell_volume   1382.87362255
_cell_formula_units_Z   16
loop_
 _symmetry_equiv_pos_site_id
 _symmetry_equiv_pos_as_xyz
  1  'x, y, z'
loop_
 _atom_type_symbol
 _atom_type_oxidation_number
  Li+  1.0
  Ge4+  4.0
  O2-  -2.0
loop_
 _atom_site_type_symbol
 _atom_site_label
 _atom_site_symmetry_multiplicity
 _atom_site_fract_x
 _atom_site_fract_y
 _atom_site_fract_z
 _atom_site_occupancy
  Li+  Li0  1  0.57900000  0.58766667  0.25000000  1.0
  Li+  Li1  1  0.57900000  0.58766667  0.75000000  1.0
  Li+  Li2  1  0.07900000  0.58766667  0.25000000  1.0
  Li+  Li3  1  0.07900000  0.58766667  0.75000000  1.0
  Li+  Li4  1  0.57900000  0.08766667  0.25000000  1.0
  Li+  Li5  1  0.57900000  0.08766667  0.75000000  1.0
  Li+  Li6  1  0.07900000  0.08766667  0.25000000  1.0
  Li+  Li7  1  0.07900000  0.08766667  0.75000000  1.0
  Li+  Li8  1  0.57900000  0.58766667  0.00000000  1.0
  Li+  Li9  1  0.57900000  0.58766667  0.50000000  1.0
  Li+  Li10  1  0.07900000  0.58766667  0.00000000  1.0
  Li+  Li11  1  0.07900000  0.58766667  0.50000000  1.0
  Li+  Li12  1  0.57900000  0.08766667  0.00000000  1.0
  Li+  Li13  1  0.57900000  0.08766667  0.50000000  1.0
  Li+  Li14  1  0.07900000  0.08766667  0.00000000  1.0
  Li+  Li15  1  0.07900000  0.08766667  0.50000000  1.0
  Li+  Li16  1  0.92100000  0.24566667  0.25000000  1.0
  Li+  Li17  1  0.92100000  0.24566667  0.75000000  1.0
  Li+  Li18  1  0.42100000  0.24566667  0.25000000  1.0
  Li+  Li19  1  0.42100000  0.24566667  0.75000000  1.0
  Li+  Li20  1  0.92100000  0.74566667  0.25000000  1.0
  Li+  Li21  1  0.92100000  0.74566667  0.75000000  1.0
  Li+  Li22  1  0.42100000  0.74566667  0.25000000  1.0
  Li+  Li23  1  0.42100000  0.74566667  0.75000000  1.0
  Li+  Li24  1  0.92100000  0.24566667  0.00000000  1.0
  Li+  Li25  1  0.92100000  0.24566667  0.50000000  1.0
  Li+  Li26  1  0.42100000  0.24566667  0.00000000  1.0
  Li+  Li27  1  0.42100000  0.24566667  0.50000000  1.0
  Li+  Li28  1  0.92100000  0.74566667  0.00000000  1.0
  Li+  Li29  1  0.92100000  0.74566667  0.50000000  1.0
  Li+  Li30  1  0.42100000  0.74566667  0.00000000  1.0
  Li+  Li31  1  0.42100000  0.74566667  0.50000000  1.0
  Li+  Li32  1  0.78600000  0.60366667  0.37500000  1.0
  Li+  Li33  1  0.78600000  0.60366667  0.87500000  1.0
  Li+  Li34  1  0.28600000  0.60366667  0.37500000  1.0
  Li+  Li35  1  0.28600000  0.60366667  0.87500000  1.0
  Li+  Li36  1  0.78600000  0.10366667  0.37500000  1.0
  Li+  Li37  1  0.78600000  0.10366667  0.87500000  1.0
  Li+  Li38  1  0.28600000  0.10366667  0.37500000  1.0
  Li+  Li39  1  0.28600000  0.10366667  0.87500000  1.0
  Li+  Li40  1  0.56300000  0.38066667  0.12500000  1.0
  Li+  Li41  1  0.56300000  0.38066667  0.62500000  1.0
  Li+  Li42  1  0.06300000  0.38066667  0.12500000  1.0
  Li+  Li43  1  0.06300000  0.38066667  0.62500000  1.0
  Li+  Li44  1  0.56300000  0.88066667  0.12500000  1.0
  Li+  Li45  1  0.56300000  0.88066667  0.62500000  1.0
  Li+  Li46  1  0.06300000  0.88066667  0.12500000  1.0
  Li+  Li47  1  0.06300000  0.88066667  0.62500000  1.0
  Li+  Li48  1  0.71400000  0.22966667  0.12500000  1.0
  Li+  Li49  1  0.71400000  0.22966667  0.62500000  1.0
  Li+  Li50  1  0.21400000  0.22966667  0.12500000  1.0
  Li+  Li51  1  0.21400000  0.22966667  0.62500000  1.0
  Li+  Li52  1  0.71400000  0.72966667  0.12500000  1.0
  Li+  Li53  1  0.71400000  0.72966667  0.62500000  1.0
  Li+  Li54  1  0.21400000  0.72966667  0.12500000  1.0
  Li+  Li55  1  0.21400000  0.72966667  0.62500000  1.0
  Li+  Li56  1  0.93700000  0.45266667  0.37500000  1.0
  Li+  Li57  1  0.93700000  0.45266667  0.87500000  1.0
  Li+  Li58  1  0.43700000  0.45266667  0.37500000  1.0
  Li+  Li59  1  0.43700000  0.45266667  0.87500000  1.0
  Li+  Li60  1  0.93700000  0.95266667  0.37500000  1.0
  Li+  Li61  1  0.93700000  0.95266667  0.87500000  1.0
  Li+  Li62  1  0.43700000  0.95266667  0.37500000  1.0
  Li+  Li63  1  0.43700000  0.95266667  0.87500000  1.0
  Ge4+  Ge64  1  0.66950000  0.33616667  0.37500000  1.0
  Ge4+  Ge65  1  0.66950000  0.33616667  0.87500000  1.0
  Ge4+  Ge66  1  0.16950000  0.33616667  0.37500000  1.0
  Ge4+  Ge67  1  0.16950000  0.33616667  0.87500000  1.0
  Ge4+  Ge68  1  0.66950000  0.83616667  0.37500000  1.0
  Ge4+  Ge69  1  0.66950000  0.83616667  0.87500000  1.0
  Ge4+  Ge70  1  0.16950000  0.83616667  0.37500000  1.0
  Ge4+  Ge71  1  0.16950000  0.83616667  0.87500000  1.0
  Ge4+  Ge72  1  0.83050000  0.49716667  0.12500000  1.0
  Ge4+  Ge73  1  0.83050000  0.49716667  0.62500000  1.0
  Ge4+  Ge74  1  0.33050000  0.49716667  0.12500000  1.0
  Ge4+  Ge75  1  0.33050000  0.49716667  0.62500000  1.0
  Ge4+  Ge76  1  0.83050000  0.99716667  0.12500000  1.0
  Ge4+  Ge77  1  0.83050000  0.99716667  0.62500000  1.0
  Ge4+  Ge78  1  0.33050000  0.99716667  0.12500000  1.0
  Ge4+  Ge79  1  0.33050000  0.99716667  0.62500000  1.0
  O2-  O80  1  0.60175000  0.26841667  0.25360000  1.0
  O2-  O81  1  0.60175000  0.26841667  0.75360000  1.0
  O2-  O82  1  0.10175000  0.26841667  0.25360000  1.0
  O2-  O83  1  0.10175000  0.26841667  0.75360000  1.0
  O2-  O84  1  0.60175000  0.76841667  0.25360000  1.0
  O2-  O85  1  0.60175000  0.76841667  0.75360000  1.0
  O2-  O86  1  0.10175000  0.76841667  0.25360000  1.0
  O2-  O87  1  0.10175000  0.76841667  0.75360000  1.0
  O2-  O88  1  0.89825000  0.56491667  0.24640000  1.0
  O2-  O89  1  0.89825000  0.56491667  0.74640000  1.0
  O2-  O90  1  0.39825000  0.56491667  0.24640000  1.0
  O2-  O91  1  0.39825000  0.56491667  0.74640000  1.0
  O2-  O92  1  0.89825000  0.06491667  0.24640000  1.0
  O2-  O93  1  0.89825000  0.06491667  0.74640000  1.0
  O2-  O94  1  0.39825000  0.06491667  0.24640000  1.0
  O2-  O95  1  0.39825000  0.06491667  0.74640000  1.0
  O2-  O96  1  0.60175000  0.26841667  0.49640000  1.0
  O2-  O97  1  0.60175000  0.26841667  0.99640000  1.0
  O2-  O98  1  0.10175000  0.26841667  0.49640000  1.0
  O2-  O99  1  0.10175000  0.26841667  0.99640000  1.0
  O2-  O100  1  0.60175000  0.76841667  0.49640000  1.0
  O2-  O101  1  0.60175000  0.76841667  0.99640000  1.0
  O2-  O102  1  0.10175000  0.76841667  0.49640000  1.0
  O2-  O103  1  0.10175000  0.76841667  0.99640000  1.0
  O2-  O104  1  0.89825000  0.56491667  0.00360000  1.0
  O2-  O105  1  0.89825000  0.56491667  0.50360000  1.0
  O2-  O106  1  0.39825000  0.56491667  0.00360000  1.0
  O2-  O107  1  0.39825000  0.56491667  0.50360000  1.0
  O2-  O108  1  0.89825000  0.06491667  0.00360000  1.0
  O2-  O109  1  0.89825000  0.06491667  0.50360000  1.0
  O2-  O110  1  0.39825000  0.06491667  0.00360000  1.0
  O2-  O111  1  0.39825000  0.06491667  0.50360000  1.0
  O2-  O112  1  0.82870000  0.30116667  0.37500000  1.0
  O2-  O113  1  0.82870000  0.30116667  0.87500000  1.0
  O2-  O114  1  0.32870000  0.30116667  0.37500000  1.0
  O2-  O115  1  0.32870000  0.30116667  0.87500000  1.0
  O2-  O116  1  0.82870000  0.80116667  0.37500000  1.0
  O2-  O117  1  0.82870000  0.80116667  0.87500000  1.0
  O2-  O118  1  0.32870000  0.80116667  0.37500000  1.0
  O2-  O119  1  0.32870000  0.80116667  0.87500000  1.0
  O2-  O120  1  0.86550000  0.33796667  0.12500000  1.0
  O2-  O121  1  0.86550000  0.33796667  0.62500000  1.0
  O2-  O122  1  0.36550000  0.33796667  0.12500000  1.0
  O2-  O123  1  0.36550000  0.33796667  0.62500000  1.0
  O2-  O124  1  0.86550000  0.83796667  0.12500000  1.0
  O2-  O125  1  0.86550000  0.83796667  0.62500000  1.0
  O2-  O126  1  0.36550000  0.83796667  0.12500000  1.0
  O2-  O127  1  0.36550000  0.83796667  0.62500000  1.0
  O2-  O128  1  0.67130000  0.53216667  0.12500000  1.0
  O2-  O129  1  0.67130000  0.53216667  0.62500000  1.0
  O2-  O130  1  0.17130000  0.53216667  0.12500000  1.0
  O2-  O131  1  0.17130000  0.53216667  0.62500000  1.0
  O2-  O132  1  0.67130000  0.03216667  0.12500000  1.0
  O2-  O133  1  0.67130000  0.03216667  0.62500000  1.0
  O2-  O134  1  0.17130000  0.03216667  0.12500000  1.0
  O2-  O135  1  0.17130000  0.03216667  0.62500000  1.0
  O2-  O136  1  0.63450000  0.49536667  0.37500000  1.0
  O2-  O137  1  0.63450000  0.49536667  0.87500000  1.0
  O2-  O138  1  0.13450000  0.49536667  0.37500000  1.0
  O2-  O139  1  0.13450000  0.49536667  0.87500000  1.0
  O2-  O140  1  0.63450000  0.99536667  0.37500000  1.0
  O2-  O141  1  0.63450000  0.99536667  0.87500000  1.0
  O2-  O142  1  0.13450000  0.99536667  0.37500000  1.0
  O2-  O143  1  0.13450000  0.99536667  0.87500000  1.0
