# generated using pymatgen
data_Li4GeO4
_symmetry_space_group_name_H-M   'P 1'
_cell_length_a   10.69519518
_cell_length_b   10.69519518
_cell_length_c   12.10000000
_cell_angle_alpha   90.00000000
_cell_angle_beta   90.00000000
_cell_angle_gamma   93.03081580
_symmetry_Int_Tables_number   1
_chemical_formula_structural   Li4GeO4
_chemical_formula_sum   'Li64 Ge16 O64'
_cell_volume   1382.14911925
_cell_formula_units_Z   16
loop_
 _symmetry_equiv_pos_site_id
 _symmetry_equiv_pos_as_xyz
  1  'x, y, z'
loop_
 _atom_type_symbol
 _atom_type_oxidation_number
  Li+  1.0
  Ge4+  4.0
  O2-  -2.0
loop_
 _atom_site_type_symbol
 _atom_site_label
 _atom_site_symmetry_multiplicity
 _atom_site_fract_x
 _atom_site_fract_y
 _atom_site_fract_z
 _atom_site_occupancy
  Li+  Li1  1  0.07900000  0.42100000  0.25000000  1.0
  Li+  Li1  1  0.07900000  0.42100000  0.75000000  1.0
  Li+  Li1  1  0.07900000  0.92100000  0.25000000  1.0
  Li+  Li1  1  0.07900000  0.92100000  0.75000000  1.0
  Li+  Li1  1  0.57900000  0.42100000  0.25000000  1.0
  Li+  Li1  1  0.57900000  0.42100000  0.75000000  1.0
  Li+  Li1  1  0.57900000  0.92100000  0.25000000  1.0
  Li+  Li1  1  0.57900000  0.92100000  0.75000000  1.0
  Li+  Li1  1  0.07900000  0.42100000  0.00000000  1.0
  Li+  Li1  1  0.07900000  0.42100000  0.50000000  1.0
  Li+  Li1  1  0.07900000  0.92100000  0.00000000  1.0
  Li+  Li1  1  0.07900000  0.92100000  0.50000000  1.0
  Li+  Li1  1  0.57900000  0.42100000  0.00000000  1.0
  Li+  Li1  1  0.57900000  0.42100000  0.50000000  1.0
  Li+  Li1  1  0.57900000  0.92100000  0.00000000  1.0
  Li+  Li1  1  0.57900000  0.92100000  0.50000000  1.0
  Li+  Li1  1  0.42100000  0.07900000  0.25000000  1.0
  Li+  Li1  1  0.42100000  0.07900000  0.75000000  1.0
  Li+  Li1  1  0.42100000  0.57900000  0.25000000  1.0
  Li+  Li1  1  0.42100000  0.57900000  0.75000000  1.0
  Li+  Li1  1  0.92100000  0.07900000  0.25000000  1.0
  Li+  Li1  1  0.92100000  0.07900000  0.75000000  1.0
  Li+  Li1  1  0.92100000  0.57900000  0.25000000  1.0
  Li+  Li1  1  0.92100000  0.57900000  0.75000000  1.0
  Li+  Li1  1  0.42100000  0.07900000  0.00000000  1.0
  Li+  Li1  1  0.42100000  0.07900000  0.50000000  1.0
  Li+  Li1  1  0.42100000  0.57900000  0.00000000  1.0
  Li+  Li1  1  0.42100000  0.57900000  0.50000000  1.0
  Li+  Li1  1  0.92100000  0.07900000  0.00000000  1.0
  Li+  Li1  1  0.92100000  0.07900000  0.50000000  1.0
  Li+  Li1  1  0.92100000  0.57900000  0.00000000  1.0
  Li+  Li1  1  0.92100000  0.57900000  0.50000000  1.0
  Li+  Li2  1  0.06300000  0.21400000  0.37500000  1.0
  Li+  Li2  1  0.06300000  0.21400000  0.87500000  1.0
  Li+  Li2  1  0.06300000  0.71400000  0.37500000  1.0
  Li+  Li2  1  0.06300000  0.71400000  0.87500000  1.0
  Li+  Li2  1  0.56300000  0.21400000  0.37500000  1.0
  Li+  Li2  1  0.56300000  0.21400000  0.87500000  1.0
  Li+  Li2  1  0.56300000  0.71400000  0.37500000  1.0
  Li+  Li2  1  0.56300000  0.71400000  0.87500000  1.0
  Li+  Li2  1  0.28600000  0.43700000  0.12500000  1.0
  Li+  Li2  1  0.28600000  0.43700000  0.62500000  1.0
  Li+  Li2  1  0.28600000  0.93700000  0.12500000  1.0
  Li+  Li2  1  0.28600000  0.93700000  0.62500000  1.0
  Li+  Li2  1  0.78600000  0.43700000  0.12500000  1.0
  Li+  Li2  1  0.78600000  0.43700000  0.62500000  1.0
  Li+  Li2  1  0.78600000  0.93700000  0.12500000  1.0
  Li+  Li2  1  0.78600000  0.93700000  0.62500000  1.0
  Li+  Li2  1  0.43700000  0.28600000  0.12500000  1.0
  Li+  Li2  1  0.43700000  0.28600000  0.62500000  1.0
  Li+  Li2  1  0.43700000  0.78600000  0.12500000  1.0
  Li+  Li2  1  0.43700000  0.78600000  0.62500000  1.0
  Li+  Li2  1  0.93700000  0.28600000  0.12500000  1.0
  Li+  Li2  1  0.93700000  0.28600000  0.62500000  1.0
  Li+  Li2  1  0.93700000  0.78600000  0.12500000  1.0
  Li+  Li2  1  0.93700000  0.78600000  0.62500000  1.0
  Li+  Li2  1  0.21400000  0.06300000  0.37500000  1.0
  Li+  Li2  1  0.21400000  0.06300000  0.87500000  1.0
  Li+  Li2  1  0.21400000  0.56300000  0.37500000  1.0
  Li+  Li2  1  0.21400000  0.56300000  0.87500000  1.0
  Li+  Li2  1  0.71400000  0.06300000  0.37500000  1.0
  Li+  Li2  1  0.71400000  0.06300000  0.87500000  1.0
  Li+  Li2  1  0.71400000  0.56300000  0.37500000  1.0
  Li+  Li2  1  0.71400000  0.56300000  0.87500000  1.0
  Ge4+  Ge1  1  0.33050000  0.33050000  0.37500000  1.0
  Ge4+  Ge1  1  0.33050000  0.33050000  0.87500000  1.0
  Ge4+  Ge1  1  0.33050000  0.83050000  0.37500000  1.0
  Ge4+  Ge1  1  0.33050000  0.83050000  0.87500000  1.0
  Ge4+  Ge1  1  0.83050000  0.33050000  0.37500000  1.0
  Ge4+  Ge1  1  0.83050000  0.33050000  0.87500000  1.0
  Ge4+  Ge1  1  0.83050000  0.83050000  0.37500000  1.0
  Ge4+  Ge1  1  0.83050000  0.83050000  0.87500000  1.0
  Ge4+  Ge1  1  0.16950000  0.16950000  0.12500000  1.0
  Ge4+  Ge1  1  0.16950000  0.16950000  0.62500000  1.0
  Ge4+  Ge1  1  0.16950000  0.66950000  0.12500000  1.0
  Ge4+  Ge1  1  0.16950000  0.66950000  0.62500000  1.0
  Ge4+  Ge1  1  0.66950000  0.16950000  0.12500000  1.0
  Ge4+  Ge1  1  0.66950000  0.16950000  0.62500000  1.0
  Ge4+  Ge1  1  0.66950000  0.66950000  0.12500000  1.0
  Ge4+  Ge1  1  0.66950000  0.66950000  0.62500000  1.0
  O2-  O1  1  0.39825000  0.39825000  0.25360000  1.0
  O2-  O1  1  0.39825000  0.39825000  0.75360000  1.0
  O2-  O1  1  0.39825000  0.89825000  0.25360000  1.0
  O2-  O1  1  0.39825000  0.89825000  0.75360000  1.0
  O2-  O1  1  0.89825000  0.39825000  0.25360000  1.0
  O2-  O1  1  0.89825000  0.39825000  0.75360000  1.0
  O2-  O1  1  0.89825000  0.89825000  0.25360000  1.0
  O2-  O1  1  0.89825000  0.89825000  0.75360000  1.0
  O2-  O1  1  0.10175000  0.10175000  0.24640000  1.0
  O2-  O1  1  0.10175000  0.10175000  0.74640000  1.0
  O2-  O1  1  0.10175000  0.60175000  0.24640000  1.0
  O2-  O1  1  0.10175000  0.60175000  0.74640000  1.0
  O2-  O1  1  0.60175000  0.10175000  0.24640000  1.0
  O2-  O1  1  0.60175000  0.10175000  0.74640000  1.0
  O2-  O1  1  0.60175000  0.60175000  0.24640000  1.0
  O2-  O1  1  0.60175000  0.60175000  0.74640000  1.0
  O2-  O1  1  0.39825000  0.39825000  0.49640000  1.0
  O2-  O1  1  0.39825000  0.39825000  0.99640000  1.0
  O2-  O1  1  0.39825000  0.89825000  0.49640000  1.0
  O2-  O1  1  0.39825000  0.89825000  0.99640000  1.0
  O2-  O1  1  0.89825000  0.39825000  0.49640000  1.0
  O2-  O1  1  0.89825000  0.39825000  0.99640000  1.0
  O2-  O1  1  0.89825000  0.89825000  0.49640000  1.0
  O2-  O1  1  0.89825000  0.89825000  0.99640000  1.0
  O2-  O1  1  0.10175000  0.10175000  0.00360000  1.0
  O2-  O1  1  0.10175000  0.10175000  0.50360000  1.0
  O2-  O1  1  0.10175000  0.60175000  0.00360000  1.0
  O2-  O1  1  0.10175000  0.60175000  0.50360000  1.0
  O2-  O1  1  0.60175000  0.10175000  0.00360000  1.0
  O2-  O1  1  0.60175000  0.10175000  0.50360000  1.0
  O2-  O1  1  0.60175000  0.60175000  0.00360000  1.0
  O2-  O1  1  0.60175000  0.60175000  0.50360000  1.0
  O2-  O2  1  0.36550000  0.17130000  0.37500000  1.0
  O2-  O2  1  0.36550000  0.17130000  0.87500000  1.0
  O2-  O2  1  0.36550000  0.67130000  0.37500000  1.0
  O2-  O2  1  0.36550000  0.67130000  0.87500000  1.0
  O2-  O2  1  0.86550000  0.17130000  0.37500000  1.0
  O2-  O2  1  0.86550000  0.17130000  0.87500000  1.0
  O2-  O2  1  0.86550000  0.67130000  0.37500000  1.0
  O2-  O2  1  0.86550000  0.67130000  0.87500000  1.0
  O2-  O2  1  0.32870000  0.13450000  0.12500000  1.0
  O2-  O2  1  0.32870000  0.13450000  0.62500000  1.0
  O2-  O2  1  0.32870000  0.63450000  0.12500000  1.0
  O2-  O2  1  0.32870000  0.63450000  0.62500000  1.0
  O2-  O2  1  0.82870000  0.13450000  0.12500000  1.0
  O2-  O2  1  0.82870000  0.13450000  0.62500000  1.0
  O2-  O2  1  0.82870000  0.63450000  0.12500000  1.0
  O2-  O2  1  0.82870000  0.63450000  0.62500000  1.0
  O2-  O2  1  0.13450000  0.32870000  0.12500000  1.0
  O2-  O2  1  0.13450000  0.32870000  0.62500000  1.0
  O2-  O2  1  0.13450000  0.82870000  0.12500000  1.0
  O2-  O2  1  0.13450000  0.82870000  0.62500000  1.0
  O2-  O2  1  0.63450000  0.32870000  0.12500000  1.0
  O2-  O2  1  0.63450000  0.32870000  0.62500000  1.0
  O2-  O2  1  0.63450000  0.82870000  0.12500000  1.0
  O2-  O2  1  0.63450000  0.82870000  0.62500000  1.0
  O2-  O2  1  0.17130000  0.36550000  0.37500000  1.0
  O2-  O2  1  0.17130000  0.36550000  0.87500000  1.0
  O2-  O2  1  0.17130000  0.86550000  0.37500000  1.0
  O2-  O2  1  0.17130000  0.86550000  0.87500000  1.0
  O2-  O2  1  0.67130000  0.36550000  0.37500000  1.0
  O2-  O2  1  0.67130000  0.36550000  0.87500000  1.0
  O2-  O2  1  0.67130000  0.86550000  0.37500000  1.0
  O2-  O2  1  0.67130000  0.86550000  0.87500000  1.0
